5ht1a-selected-docking_0010
  PyMOL2.5          3D                             0

 28 30  0  0  0  0  0  0  0  0999 V2000
   98.7230  120.5480  110.7070 O   0  0  0  0  0  0  0  0  0  0  0  0
   99.1480  120.8630  111.9170 C   0  0  0  0  0  0  0  0  0  0  0  0
  100.5460  121.1460  111.9690 C   0  0  0  0  0  0  0  0  0  0  0  0
  101.0550  122.3940  112.2100 C   0  0  0  0  0  0  0  0  0  0  0  0
  102.4430  122.6220  112.2640 C   0  0  0  0  0  0  0  0  0  0  0  0
  103.3030  121.5810  112.0720 C   0  0  0  0  0  0  0  0  0  0  0  0
  104.6350  121.8190  112.1280 F   0  0  0  0  0  0  0  0  0  0  0  0
  102.8310  120.3090  111.8270 C   0  0  0  0  0  0  0  0  0  0  0  0
  103.9570  118.9670  111.5800 Cl  0  0  0  0  0  0  0  0  0  0  0  0
  101.4900  120.1190  111.7800 C   0  0  0  0  0  0  0  0  0  0  0  0
   98.1690  120.8540  112.8740 N   0  0  0  0  0  0  0  0  0  0  0  0
   96.7870  120.4810  112.4240 C   0  0  0  0  0  0  0  0  0  0  0  0
   95.9280  121.6290  112.9590 C   0  0  0  0  0  0  0  0  0  0  0  0
   95.7650  121.3090  114.4460 C   0  0  0  0  0  0  0  0  0  0  0  0
   95.5400  122.5660  115.0300 F   0  0  0  0  0  0  0  0  0  0  0  0
   94.5160  120.5010  114.6490 C   0  0  0  0  0  0  0  0  0  0  0  0
   94.6720  119.2460  115.2910 N   0  0  0  0  0  0  0  0  0  0  0  0
   94.3910  119.1710  116.6750 C   0  0  0  0  0  0  0  0  0  0  0  0
   94.2270  117.7920  117.2410 C   0  0  0  0  0  0  0  0  0  0  0  0
   95.2080  116.8800  116.9730 O   0  0  0  0  0  0  0  0  0  0  0  0
   95.2360  115.6650  116.3830 C   0  0  0  0  0  0  0  0  0  0  0  0
   94.1770  114.8570  116.2510 N   0  0  0  0  0  0  0  0  0  0  0  0
   94.3260  113.6710  115.6470 C   0  0  0  0  0  0  0  0  0  0  0  0
   95.5390  113.2480  115.1510 C   0  0  0  0  0  0  0  0  0  0  0  0
   96.6320  114.0880  115.2900 C   0  0  0  0  0  0  0  0  0  0  0  0
   96.4510  115.2590  115.8940 N   0  0  0  0  0  0  0  0  0  0  0  0
   97.0040  120.7640  115.0340 C   0  0  0  0  0  0  0  0  0  0  0  0
   98.2600  121.1610  114.2460 C   0  0  0  0  0  0  0  0  0  0  0  0
  1  2  2  0  0  0  0
  2  3  1  0  0  0  0
  2 11  1  0  0  0  0
  3  4  2  0  0  0  0
  4  5  1  0  0  0  0
  5  6  2  0  0  0  0
  6  7  1  0  0  0  0
  6  8  1  0  0  0  0
  8  9  1  0  0  0  0
  8 10  2  0  0  0  0
  3 10  1  0  0  0  0
 11 12  1  0  0  0  0
 12 13  1  0  0  0  0
 13 14  1  0  0  0  0
 14 15  1  0  0  0  0
 14 16  1  0  0  0  0
 14 27  1  0  0  0  0
 16 17  1  0  0  0  0
 17 18  1  0  0  0  0
 18 19  1  0  0  0  0
 19 20  1  0  0  0  0
 20 21  1  0  0  0  0
 21 22  2  0  0  0  0
 22 23  1  0  0  0  0
 23 24  2  0  0  0  0
 24 25  1  0  0  0  0
 25 26  2  0  0  0  0
 21 26  1  0  0  0  0
 27 28  1  0  0  0  0
 11 28  1  0  0  0  0
M  END
$$$$
5ht1a-selected-docking_0058
  PyMOL2.5          3D                             0

 29 31  0  0  0  0  0  0  0  0999 V2000
  102.8240  121.1910  112.8640 O   0  0  0  0  0  0  0  0  0  0  0  0
  102.1870  120.3790  112.0630 C   0  0  0  0  0  0  0  0  0  0  0  0
  102.9380  119.2690  111.5600 C   0  0  0  0  0  0  0  0  0  0  0  0
  102.4640  118.0470  111.1800 C   0  0  0  0  0  0  0  0  0  0  0  0
  103.2470  117.0350  110.6300 C   0  0  0  0  0  0  0  0  0  0  0  0
  104.5870  117.2770  110.4550 C   0  0  0  0  0  0  0  0  0  0  0  0
  105.4270  116.3560  109.9300 F   0  0  0  0  0  0  0  0  0  0  0  0
  105.1240  118.4880  110.8150 C   0  0  0  0  0  0  0  0  0  0  0  0
  106.8290  118.8440  110.6080 Cl  0  0  0  0  0  0  0  0  0  0  0  0
  104.3180  119.4570  111.3530 C   0  0  0  0  0  0  0  0  0  0  0  0
  100.8470  120.6740  111.7840 N   0  0  0  0  0  0  0  0  0  0  0  0
  100.2890  121.9680  112.3460 C   0  0  0  0  0  0  0  0  0  0  0  0
   99.3700  121.5060  113.4200 C   0  0  0  0  0  0  0  0  0  0  0  0
   98.2570  120.6300  112.9170 C   0  0  0  0  0  0  0  0  0  0  0  0
   97.5000  121.4650  112.0810 F   0  0  0  0  0  0  0  0  0  0  0  0
   97.4650  120.1400  114.0890 C   0  0  0  0  0  0  0  0  0  0  0  0
   98.1650  119.9840  115.3080 N   0  0  0  0  0  0  0  0  0  0  0  0
   97.6270  119.1050  116.2950 C   0  0  0  0  0  0  0  0  0  0  0  0
   96.7130  118.0560  115.7850 C   0  0  0  0  0  0  0  0  0  0  0  0
   97.0360  116.7440  116.0210 O   0  0  0  0  0  0  0  0  0  0  0  0
   96.2260  115.6520  116.1100 C   0  0  0  0  0  0  0  0  0  0  0  0
   94.8500  115.6460  116.0840 C   0  0  0  0  0  0  0  0  0  0  0  0
   94.1000  114.4680  116.1790 C   0  0  0  0  0  0  0  0  0  0  0  0
   94.7450  113.2590  116.3040 C   0  0  0  0  0  0  0  0  0  0  0  0
   96.1380  113.2410  116.3330 C   0  0  0  0  0  0  0  0  0  0  0  0
   96.8600  114.3950  116.2390 C   0  0  0  0  0  0  0  0  0  0  0  0
   98.6270  114.3450  116.2770 Cl  0  0  0  0  0  0  0  0  0  0  0  0
   98.7220  119.4920  112.0240 C   0  0  0  0  0  0  0  0  0  0  0  0
   99.8310  119.9540  111.0940 C   0  0  0  0  0  0  0  0  0  0  0  0
  1  2  2  0  0  0  0
  2  3  1  0  0  0  0
  2 11  1  0  0  0  0
  3  4  2  0  0  0  0
  4  5  1  0  0  0  0
  5  6  2  0  0  0  0
  6  7  1  0  0  0  0
  6  8  1  0  0  0  0
  8  9  1  0  0  0  0
  8 10  2  0  0  0  0
  3 10  1  0  0  0  0
 11 12  1  0  0  0  0
 12 13  1  0  0  0  0
 13 14  1  0  0  0  0
 14 15  1  0  0  0  0
 14 16  1  0  0  0  0
 14 28  1  0  0  0  0
 16 17  1  0  0  0  0
 17 18  1  0  0  0  0
 18 19  1  0  0  0  0
 19 20  1  0  0  0  0
 20 21  1  0  0  0  0
 21 22  2  0  0  0  0
 22 23  1  0  0  0  0
 23 24  2  0  0  0  0
 24 25  1  0  0  0  0
 25 26  2  0  0  0  0
 21 26  1  0  0  0  0
 26 27  1  0  0  0  0
 28 29  1  0  0  0  0
 11 29  1  0  0  0  0
M  END
$$$$
5ht1a-selected-docking_0100
  PyMOL2.5          3D                             0

 31 34  0  0  0  0  0  0  0  0999 V2000
  102.6740  120.9750  112.8880 O   0  0  0  0  0  0  0  0  0  0  0  0
  102.0810  120.1830  112.0020 C   0  0  0  0  0  0  0  0  0  0  0  0
  102.9270  119.2200  111.3630 C   0  0  0  0  0  0  0  0  0  0  0  0
  102.5580  117.8630  111.4730 C   0  0  0  0  0  0  0  0  0  0  0  0
  103.3120  116.8710  110.9130 C   0  0  0  0  0  0  0  0  0  0  0  0
  104.4670  117.1270  110.2170 C   0  0  0  0  0  0  0  0  0  0  0  0
  105.2160  116.1540  109.6660 F   0  0  0  0  0  0  0  0  0  0  0  0
  104.8290  118.4460  110.1080 C   0  0  0  0  0  0  0  0  0  0  0  0
  106.2920  118.8410  109.2340 Cl  0  0  0  0  0  0  0  0  0  0  0  0
  104.0650  119.4850  110.6770 C   0  0  0  0  0  0  0  0  0  0  0  0
  100.7250  120.4340  111.8490 N   0  0  0  0  0  0  0  0  0  0  0  0
  100.0970  121.5110  112.6710 C   0  0  0  0  0  0  0  0  0  0  0  0
   98.9130  121.0200  113.4520 C   0  0  0  0  0  0  0  0  0  0  0  0
   98.1450  120.0080  112.6620 C   0  0  0  0  0  0  0  0  0  0  0  0
   98.6950  118.7150  112.8750 F   0  0  0  0  0  0  0  0  0  0  0  0
   96.6890  119.9750  112.9440 C   0  0  0  0  0  0  0  0  0  0  0  0
   96.1750  119.3260  114.0340 N   0  0  0  0  0  0  0  0  0  0  0  0
   96.4910  119.6460  115.3680 C   0  0  0  0  0  0  0  0  0  0  0  0
   96.9750  118.3750  116.0320 C   0  0  0  0  0  0  0  0  0  0  0  0
   96.2240  117.2990  115.6220 O   0  0  0  0  0  0  0  0  0  0  0  0
   96.3730  115.9940  115.9800 C   0  0  0  0  0  0  0  0  0  0  0  0
   97.5260  115.3740  116.3780 C   0  0  0  0  0  0  0  0  0  0  0  0
   97.5540  114.0150  116.7310 C   0  0  0  0  0  0  0  0  0  0  0  0
   96.4310  113.2440  116.6970 C   0  0  0  0  0  0  0  0  0  0  0  0
   95.2530  113.8440  116.3010 C   0  0  0  0  0  0  0  0  0  0  0  0
   95.2380  115.1510  115.9640 C   0  0  0  0  0  0  0  0  0  0  0  0
   93.8470  115.5330  115.5780 C   0  0  0  0  0  0  0  0  0  0  0  0
   93.0280  114.3130  115.8970 C   0  0  0  0  0  0  0  0  0  0  0  0
   93.9680  113.2540  116.1870 N   0  0  0  0  0  0  0  0  0  0  0  0
   98.4150  120.2850  111.1930 C   0  0  0  0  0  0  0  0  0  0  0  0
   99.8520  119.7570  110.9370 C   0  0  0  0  0  0  0  0  0  0  0  0
  1  2  2  0  0  0  0
  2  3  1  0  0  0  0
  2 11  1  0  0  0  0
  3  4  2  0  0  0  0
  4  5  1  0  0  0  0
  5  6  2  0  0  0  0
  6  7  1  0  0  0  0
  6  8  1  0  0  0  0
  8  9  1  0  0  0  0
  8 10  2  0  0  0  0
  3 10  1  0  0  0  0
 11 12  1  0  0  0  0
 12 13  1  0  0  0  0
 13 14  1  0  0  0  0
 14 15  1  0  0  0  0
 14 16  1  0  0  0  0
 14 30  1  0  0  0  0
 16 17  1  0  0  0  0
 17 18  1  0  0  0  0
 18 19  1  0  0  0  0
 19 20  1  0  0  0  0
 20 21  1  0  0  0  0
 21 22  2  0  0  0  0
 22 23  1  0  0  0  0
 23 24  2  0  0  0  0
 24 25  1  0  0  0  0
 25 26  2  0  0  0  0
 21 26  1  0  0  0  0
 26 27  1  0  0  0  0
 27 28  1  0  0  0  0
 28 29  1  0  0  0  0
 25 29  1  0  0  0  0
 30 31  1  0  0  0  0
 11 31  1  0  0  0  0
M  END
$$$$
5ht1a-selected-docking_0108
  PyMOL2.5          3D                             0

 28 30  0  0  0  0  0  0  0  0999 V2000
  101.9740  118.8500  114.3380 O   0  0  0  0  0  0  0  0  0  0  0  0
  101.3190  118.8200  113.1810 C   0  0  0  0  0  0  0  0  0  0  0  0
  102.1460  118.3650  112.1010 C   0  0  0  0  0  0  0  0  0  0  0  0
  101.8360  117.1170  111.5080 C   0  0  0  0  0  0  0  0  0  0  0  0
  102.5300  116.6850  110.4280 C   0  0  0  0  0  0  0  0  0  0  0  0
  103.5440  117.4050  109.8620 C   0  0  0  0  0  0  0  0  0  0  0  0
  104.2190  116.9560  108.7860 F   0  0  0  0  0  0  0  0  0  0  0  0
  103.8380  118.6110  110.4440 C   0  0  0  0  0  0  0  0  0  0  0  0
  105.1300  119.6390  109.8010 Cl  0  0  0  0  0  0  0  0  0  0  0  0
  103.1570  119.1080  111.5600 C   0  0  0  0  0  0  0  0  0  0  0  0
   99.9950  119.2150  113.2040 N   0  0  0  0  0  0  0  0  0  0  0  0
   99.0200  119.2370  112.1800 C   0  0  0  0  0  0  0  0  0  0  0  0
   98.3630  120.6330  112.2210 C   0  0  0  0  0  0  0  0  0  0  0  0
   97.4840  120.6700  113.4570 C   0  0  0  0  0  0  0  0  0  0  0  0
   97.4520  121.9780  113.8680 F   0  0  0  0  0  0  0  0  0  0  0  0
   96.0830  120.1060  113.1810 C   0  0  0  0  0  0  0  0  0  0  0  0
   95.6670  119.2310  114.1750 N   0  0  0  0  0  0  0  0  0  0  0  0
   94.3320  118.9170  114.4080 C   0  0  0  0  0  0  0  0  0  0  0  0
   94.0530  118.3580  115.7810 C   0  0  0  0  0  0  0  0  0  0  0  0
   94.0210  116.6100  115.9570 S   0  0  0  0  0  0  0  0  0  0  0  0
   95.5560  115.7570  115.9310 C   0  0  0  0  0  0  0  0  0  0  0  0
   95.6990  114.3800  115.9960 C   0  0  0  0  0  0  0  0  0  0  0  0
   96.9460  113.7930  115.9740 C   0  0  0  0  0  0  0  0  0  0  0  0
   98.0570  114.5870  115.8850 C   0  0  0  0  0  0  0  0  0  0  0  0
   97.9120  115.9680  115.8200 C   0  0  0  0  0  0  0  0  0  0  0  0
   96.6890  116.4920  115.8430 N   0  0  0  0  0  0  0  0  0  0  0  0
   98.0330  119.7850  114.5630 C   0  0  0  0  0  0  0  0  0  0  0  0
   99.5140  119.7180  114.5250 C   0  0  0  0  0  0  0  0  0  0  0  0
  1  2  2  0  0  0  0
  2  3  1  0  0  0  0
  2 11  1  0  0  0  0
  3  4  2  0  0  0  0
  4  5  1  0  0  0  0
  5  6  2  0  0  0  0
  6  7  1  0  0  0  0
  6  8  1  0  0  0  0
  8  9  1  0  0  0  0
  8 10  2  0  0  0  0
  3 10  1  0  0  0  0
 11 12  1  0  0  0  0
 12 13  1  0  0  0  0
 13 14  1  0  0  0  0
 14 15  1  0  0  0  0
 14 16  1  0  0  0  0
 14 27  1  0  0  0  0
 16 17  1  0  0  0  0
 17 18  1  0  0  0  0
 18 19  1  0  0  0  0
 19 20  1  0  0  0  0
 20 21  1  0  0  0  0
 21 22  2  0  0  0  0
 22 23  1  0  0  0  0
 23 24  2  0  0  0  0
 24 25  1  0  0  0  0
 25 26  2  0  0  0  0
 21 26  1  0  0  0  0
 27 28  1  0  0  0  0
 11 28  1  0  0  0  0
M  END
$$$$
5ht1a-selected-docking_0145
  PyMOL2.5          3D                             0

 30 32  0  0  0  0  0  0  0  0999 V2000
   93.3660  115.4650  116.7100 C   0  0  0  0  0  0  0  0  0  0  0  0
   94.4050  115.1570  115.8280 O   0  0  0  0  0  0  0  0  0  0  0  0
   95.7430  115.1010  116.1020 C   0  0  0  0  0  0  0  0  0  0  0  0
   96.3110  113.9820  116.6500 C   0  0  0  0  0  0  0  0  0  0  0  0
   97.6680  113.9740  116.9100 C   0  0  0  0  0  0  0  0  0  0  0  0
   98.4380  115.0810  116.6170 C   0  0  0  0  0  0  0  0  0  0  0  0
   97.8420  116.1900  116.0660 C   0  0  0  0  0  0  0  0  0  0  0  0
   96.4970  116.2350  115.7950 C   0  0  0  0  0  0  0  0  0  0  0  0
   95.8720  117.3330  115.2460 O   0  0  0  0  0  0  0  0  0  0  0  0
   96.2000  118.6700  115.5010 C   0  0  0  0  0  0  0  0  0  0  0  0
   95.4720  119.6100  114.5320 C   0  0  0  0  0  0  0  0  0  0  0  0
   96.2540  119.6940  113.3660 N   0  0  0  0  0  0  0  0  0  0  0  0
   97.4100  120.4720  113.3050 C   0  0  0  0  0  0  0  0  0  0  0  0
   98.6590  119.9180  112.7190 C   0  0  0  0  0  0  0  0  0  0  0  0
   98.6580  118.5110  112.7680 F   0  0  0  0  0  0  0  0  0  0  0  0
   99.0190  120.3050  111.3440 C   0  0  0  0  0  0  0  0  0  0  0  0
  100.3320  119.5460  110.9650 C   0  0  0  0  0  0  0  0  0  0  0  0
  101.3280  119.8640  111.9290 N   0  0  0  0  0  0  0  0  0  0  0  0
  102.5830  119.2850  112.0710 C   0  0  0  0  0  0  0  0  0  0  0  0
  103.3370  119.7750  113.0350 O   0  0  0  0  0  0  0  0  0  0  0  0
  103.2190  118.2290  111.3360 C   0  0  0  0  0  0  0  0  0  0  0  0
  104.2790  118.5350  110.4650 C   0  0  0  0  0  0  0  0  0  0  0  0
  104.9140  117.5810  109.7010 C   0  0  0  0  0  0  0  0  0  0  0  0
  104.5020  116.2650  109.7860 C   0  0  0  0  0  0  0  0  0  0  0  0
  105.1070  115.3000  109.0450 F   0  0  0  0  0  0  0  0  0  0  0  0
  103.4760  115.9130  110.6180 C   0  0  0  0  0  0  0  0  0  0  0  0
  102.9440  114.2490  110.7350 Cl  0  0  0  0  0  0  0  0  0  0  0  0
  102.8630  116.9260  111.3760 C   0  0  0  0  0  0  0  0  0  0  0  0
  100.9460  120.9330  112.8860 C   0  0  0  0  0  0  0  0  0  0  0  0
   99.7970  120.3390  113.6840 C   0  0  0  0  0  0  0  0  0  0  0  0
  1  2  1  0  0  0  0
  2  3  1  0  0  0  0
  3  4  2  0  0  0  0
  4  5  1  0  0  0  0
  5  6  2  0  0  0  0
  6  7  1  0  0  0  0
  7  8  2  0  0  0  0
  3  8  1  0  0  0  0
  8  9  1  0  0  0  0
  9 10  1  0  0  0  0
 10 11  1  0  0  0  0
 11 12  1  0  0  0  0
 12 13  1  0  0  0  0
 13 14  1  0  0  0  0
 14 15  1  0  0  0  0
 14 16  1  0  0  0  0
 16 17  1  0  0  0  0
 17 18  1  0  0  0  0
 18 19  1  0  0  0  0
 18 29  1  0  0  0  0
 19 20  2  0  0  0  0
 19 21  1  0  0  0  0
 21 22  2  0  0  0  0
 22 23  1  0  0  0  0
 23 24  2  0  0  0  0
 24 25  1  0  0  0  0
 24 26  1  0  0  0  0
 26 27  1  0  0  0  0
 26 28  2  0  0  0  0
 21 28  1  0  0  0  0
 29 30  1  0  0  0  0
 14 30  1  0  0  0  0
M  END
$$$$
5ht1a-selected-docking_0198
  PyMOL2.5          3D                             0

 28 30  0  0  0  0  0  0  0  0999 V2000
   98.5210  120.3410  110.3020 O   0  0  0  0  0  0  0  0  0  0  0  0
   98.9260  120.6350  111.5030 C   0  0  0  0  0  0  0  0  0  0  0  0
  100.2900  120.3110  111.8030 C   0  0  0  0  0  0  0  0  0  0  0  0
  100.6030  118.9720  112.1600 C   0  0  0  0  0  0  0  0  0  0  0  0
  101.8710  118.6270  112.4990 C   0  0  0  0  0  0  0  0  0  0  0  0
  102.9100  119.5210  112.5190 C   0  0  0  0  0  0  0  0  0  0  0  0
  104.1830  119.1420  112.8660 F   0  0  0  0  0  0  0  0  0  0  0  0
  102.6580  120.8190  112.1820 C   0  0  0  0  0  0  0  0  0  0  0  0
  103.8930  122.0560  112.1660 Cl  0  0  0  0  0  0  0  0  0  0  0  0
  101.3470  121.1750  111.8320 C   0  0  0  0  0  0  0  0  0  0  0  0
   97.9710  121.2250  112.3370 N   0  0  0  0  0  0  0  0  0  0  0  0
   96.6350  121.5120  111.7570 C   0  0  0  0  0  0  0  0  0  0  0  0
   95.7850  121.9360  112.9590 C   0  0  0  0  0  0  0  0  0  0  0  0
   95.7970  120.7890  113.9650 C   0  0  0  0  0  0  0  0  0  0  0  0
   95.4850  119.6350  113.2890 F   0  0  0  0  0  0  0  0  0  0  0  0
   94.8800  121.1260  115.0910 C   0  0  0  0  0  0  0  0  0  0  0  0
   95.0920  120.3190  116.2300 N   0  0  0  0  0  0  0  0  0  0  0  0
   94.0390  119.4740  116.6650 C   0  0  0  0  0  0  0  0  0  0  0  0
   94.5700  118.1970  117.2950 C   0  0  0  0  0  0  0  0  0  0  0  0
   95.8400  117.5030  116.2490 S   0  0  0  0  0  0  0  0  0  0  0  0
   95.8620  115.7300  116.3150 C   0  0  0  0  0  0  0  0  0  0  0  0
   94.6980  115.0160  116.0290 C   0  0  0  0  0  0  0  0  0  0  0  0
   94.6110  113.6520  116.0760 C   0  0  0  0  0  0  0  0  0  0  0  0
   95.7400  112.9480  116.4230 C   0  0  0  0  0  0  0  0  0  0  0  0
   96.9070  113.5990  116.7130 C   0  0  0  0  0  0  0  0  0  0  0  0
   96.9670  114.9850  116.6600 C   0  0  0  0  0  0  0  0  0  0  0  0
   97.1990  120.6110  114.5170 C   0  0  0  0  0  0  0  0  0  0  0  0
   98.1250  121.5400  113.7150 C   0  0  0  0  0  0  0  0  0  0  0  0
  1  2  2  0  0  0  0
  2  3  1  0  0  0  0
  2 11  1  0  0  0  0
  3  4  2  0  0  0  0
  4  5  1  0  0  0  0
  5  6  2  0  0  0  0
  6  7  1  0  0  0  0
  6  8  1  0  0  0  0
  8  9  1  0  0  0  0
  8 10  2  0  0  0  0
  3 10  1  0  0  0  0
 11 12  1  0  0  0  0
 12 13  1  0  0  0  0
 13 14  1  0  0  0  0
 14 15  1  0  0  0  0
 14 16  1  0  0  0  0
 14 27  1  0  0  0  0
 16 17  1  0  0  0  0
 17 18  1  0  0  0  0
 18 19  1  0  0  0  0
 19 20  1  0  0  0  0
 20 21  1  0  0  0  0
 21 22  2  0  0  0  0
 22 23  1  0  0  0  0
 23 24  2  0  0  0  0
 24 25  1  0  0  0  0
 25 26  2  0  0  0  0
 21 26  1  0  0  0  0
 27 28  1  0  0  0  0
 11 28  1  0  0  0  0
M  END
$$$$
5ht1a-selected-docking_0254
  PyMOL2.5          3D                             0

 32 35  0  0  0  0  0  0  0  0999 V2000
  104.0480  119.9300  110.7240 O   0  0  0  0  0  0  0  0  0  0  0  0
  103.2620  118.8730  110.8420 C   0  0  0  0  0  0  0  0  0  0  0  0
  103.6290  117.7810  110.0210 C   0  0  0  0  0  0  0  0  0  0  0  0
  103.0140  117.3780  108.8740 C   0  0  0  0  0  0  0  0  0  0  0  0
  103.4510  116.2880  108.0920 C   0  0  0  0  0  0  0  0  0  0  0  0
  104.5490  115.5860  108.4860 C   0  0  0  0  0  0  0  0  0  0  0  0
  105.0980  114.2260  107.5130 Cl  0  0  0  0  0  0  0  0  0  0  0  0
  105.1830  115.9630  109.6200 C   0  0  0  0  0  0  0  0  0  0  0  0
  106.6130  115.0860  110.1760 Cl  0  0  0  0  0  0  0  0  0  0  0  0
  104.7580  117.0130  110.3700 C   0  0  0  0  0  0  0  0  0  0  0  0
  102.2170  119.0340  111.7590 N   0  0  0  0  0  0  0  0  0  0  0  0
  102.0860  120.3400  112.4580 C   0  0  0  0  0  0  0  0  0  0  0  0
  100.6950  120.8380  112.2660 C   0  0  0  0  0  0  0  0  0  0  0  0
   99.6580  119.8230  112.6640 C   0  0  0  0  0  0  0  0  0  0  0  0
   98.4090  120.3370  112.3550 F   0  0  0  0  0  0  0  0  0  0  0  0
   99.8020  119.5270  114.1260 C   0  0  0  0  0  0  0  0  0  0  0  0
   98.5870  119.8260  114.8160 N   0  0  0  0  0  0  0  0  0  0  0  0
   98.7930  120.0230  116.2450 C   0  0  0  0  0  0  0  0  0  0  0  0
   98.1710  118.8560  116.9370 C   0  0  0  0  0  0  0  0  0  0  0  0
   97.4430  117.9740  116.1980 O   0  0  0  0  0  0  0  0  0  0  0  0
   96.2670  117.3270  116.3950 C   0  0  0  0  0  0  0  0  0  0  0  0
   95.1310  117.8960  116.9030 C   0  0  0  0  0  0  0  0  0  0  0  0
   93.9570  117.2010  117.0890 C   0  0  0  0  0  0  0  0  0  0  0  0
   93.9120  115.8690  116.7500 C   0  0  0  0  0  0  0  0  0  0  0  0
   95.0310  115.2560  116.2350 C   0  0  0  0  0  0  0  0  0  0  0  0
   94.9640  113.8970  115.8970 C   0  0  0  0  0  0  0  0  0  0  0  0
   96.1110  113.3340  115.3880 C   0  0  0  0  0  0  0  0  0  0  0  0
   97.2800  114.0520  115.2100 C   0  0  0  0  0  0  0  0  0  0  0  0
   97.2750  115.3490  115.5540 N   0  0  0  0  0  0  0  0  0  0  0  0
   96.1880  115.9590  116.0580 C   0  0  0  0  0  0  0  0  0  0  0  0
   99.8430  118.5950  111.8140 C   0  0  0  0  0  0  0  0  0  0  0  0
  101.2720  118.0380  112.1010 C   0  0  0  0  0  0  0  0  0  0  0  0
  1  2  2  0  0  0  0
  2  3  1  0  0  0  0
  2 11  1  0  0  0  0
  3  4  2  0  0  0  0
  4  5  1  0  0  0  0
  5  6  2  0  0  0  0
  6  7  1  0  0  0  0
  6  8  1  0  0  0  0
  8  9  1  0  0  0  0
  8 10  2  0  0  0  0
  3 10  1  0  0  0  0
 11 12  1  0  0  0  0
 12 13  1  0  0  0  0
 13 14  1  0  0  0  0
 14 15  1  0  0  0  0
 14 16  1  0  0  0  0
 14 31  1  0  0  0  0
 16 17  1  0  0  0  0
 17 18  1  0  0  0  0
 18 19  1  0  0  0  0
 19 20  1  0  0  0  0
 20 21  1  0  0  0  0
 21 22  2  0  0  0  0
 22 23  1  0  0  0  0
 23 24  2  0  0  0  0
 24 25  1  0  0  0  0
 25 26  2  0  0  0  0
 26 27  1  0  0  0  0
 27 28  2  0  0  0  0
 28 29  1  0  0  0  0
 29 30  2  0  0  0  0
 21 30  1  0  0  0  0
 25 30  1  0  0  0  0
 31 32  1  0  0  0  0
 11 32  1  0  0  0  0
M  END
$$$$
