CHEMBL5206801
Actelion Java MolfileCreator 1.0

 48 50  0  0  0  0  0  0  0  0999 V2000
    2.9052   -2.9052    4.4411 Cl  0  0  0  0  0  0  0  0  0  0  0  0
    2.8376   -3.8576    3.0089 C   0  0  0  0  0  0  0  0  0  0  0  0
    3.8988   -4.6944    2.6602 C   0  0  0  0  0  0  0  0  0  0  0  0
    1.7079   -3.7869    2.1956 C   0  0  0  0  0  0  0  0  0  0  0  0
    4.9920   -4.7706    3.4330 F   0  0  0  0  0  0  0  0  0  0  0  0
    3.8425   -5.4727    1.5057 C   0  0  0  0  0  0  0  0  0  0  0  0
    1.6629   -4.5503    1.0235 C   0  0  0  0  0  0  0  0  0  0  0  0
    2.7162   -5.4080    0.6851 C   0  0  0  0  0  0  0  0  0  0  0  0
    0.4628   -4.5212    0.1650 C   0  0  0  0  0  0  0  0  0  0  0  0
   -0.1586   -5.5736    0.0452 O   0  0  0  0  0  0  0  0  0  0  0  0
    0.0953   -3.3260   -0.4423 N   0  0  0  0  0  0  0  0  0  0  0  0
   -1.1478   -3.2722   -1.2031 C   0  0  0  0  0  0  0  0  0  0  0  0
    0.9148   -2.1176   -0.5291 C   0  0  0  0  0  0  0  0  0  0  0  0
   -1.9969   -2.0894   -0.7523 C   0  0  0  0  0  0  0  0  0  0  0  0
    0.1288   -0.9044   -0.0493 C   0  0  0  0  0  0  0  0  0  0  0  0
   -1.1990   -0.7808   -0.8086 C   0  0  0  0  0  0  0  0  0  0  0  0
   -0.9086   -0.5341   -2.1260 F   0  0  0  0  0  0  0  0  0  0  0  0
   -2.0653    0.3929   -0.2957 C   0  0  0  0  0  0  0  0  0  0  0  0
   -1.3631    1.6786   -0.3677 N   0  0  0  0  0  0  0  0  0  0  0  0
   -2.2463    2.7952    0.0240 C   0  0  0  0  0  0  0  0  0  0  0  0
   -1.6241    4.1613   -0.2267 C   0  0  0  0  0  0  0  0  0  0  0  0
   -1.5466    5.0244    0.8062 N   0  0  0  0  0  0  0  0  0  0  0  0
   -1.2054    4.4311   -1.4835 N   0  0  0  0  0  0  0  0  0  0  0  0
   -0.9941    6.2244    0.5427 C   0  0  0  0  0  0  0  0  0  0  0  0
   -0.6627    5.6473   -1.6845 C   0  0  0  0  0  0  0  0  0  0  0  0
   -0.5382    6.6060   -0.7014 C   0  0  0  0  0  0  0  0  0  0  0  0
    0.1025    7.9271   -0.9483 C   0  0  0  0  0  0  0  0  0  0  0  0
    0.8682   -3.1544    2.4697 H   0  0  0  0  0  0  0  0  0  0  0  0
    4.6720   -6.1285    1.2588 H   0  0  0  0  0  0  0  0  0  0  0  0
    2.6527   -6.0249   -0.2089 H   0  0  0  0  0  0  0  0  0  0  0  0
   -0.8849   -3.1808   -2.2636 H   0  0  0  0  0  0  0  0  0  0  0  0
   -1.7221   -4.1971   -1.0891 H   0  0  0  0  0  0  0  0  0  0  0  0
    1.8455   -2.2108    0.0334 H   0  0  0  0  0  0  0  0  0  0  0  0
    1.2001   -1.9958   -1.5812 H   0  0  0  0  0  0  0  0  0  0  0  0
   -2.8786   -2.0216   -1.3999 H   0  0  0  0  0  0  0  0  0  0  0  0
   -2.3481   -2.2658    0.2723 H   0  0  0  0  0  0  0  0  0  0  0  0
    0.7467   -0.0132   -0.2051 H   0  0  0  0  0  0  0  0  0  0  0  0
   -0.0654   -0.9948    1.0266 H   0  0  0  0  0  0  0  0  0  0  0  0
   -2.3680    0.2002    0.7406 H   0  0  0  0  0  0  0  0  0  0  0  0
   -2.9719    0.4457   -0.9112 H   0  0  0  0  0  0  0  0  0  0  0  0
   -1.0654    1.8499   -1.3335 H   0  0  0  0  0  0  0  0  0  0  0  0
   -3.1827    2.7611   -0.5459 H   0  0  0  0  0  0  0  0  0  0  0  0
   -2.4948    2.7055    1.0878 H   0  0  0  0  0  0  0  0  0  0  0  0
   -0.9283    6.8915    1.3982 H   0  0  0  0  0  0  0  0  0  0  0  0
   -0.3191    5.8295   -2.6991 H   0  0  0  0  0  0  0  0  0  0  0  0
   -0.3176    8.6948   -0.2898 H   0  0  0  0  0  0  0  0  0  0  0  0
   -0.0654    8.2568   -1.9790 H   0  0  0  0  0  0  0  0  0  0  0  0
    1.1803    7.8629   -0.7707 H   0  0  0  0  0  0  0  0  0  0  0  0
  1  2  1  0  0  0  0
  2  3  2  0  0  0  0
  2  4  1  0  0  0  0
  3  5  1  0  0  0  0
  3  6  1  0  0  0  0
  4  7  2  0  0  0  0
  6  8  2  0  0  0  0
  7  9  1  0  0  0  0
  9 10  2  0  0  0  0
  9 11  1  0  0  0  0
 11 12  1  0  0  0  0
 11 13  1  0  0  0  0
 12 14  1  0  0  0  0
 13 15  1  0  0  0  0
 14 16  1  0  0  0  0
 16 17  1  0  0  0  0
 16 18  1  0  0  0  0
 18 19  1  0  0  0  0
 19 20  1  0  0  0  0
 20 21  1  0  0  0  0
 21 22  2  0  0  0  0
 21 23  1  0  0  0  0
 22 24  1  0  0  0  0
 23 25  2  0  0  0  0
 24 26  2  0  0  0  0
 26 27  1  0  0  0  0
  7  8  1  0  0  0  0
 15 16  1  0  0  0  0
 25 26  1  0  0  0  0
  4 28  1  0  0  0  0
  6 29  1  0  0  0  0
  8 30  1  0  0  0  0
 12 31  1  0  0  0  0
 12 32  1  0  0  0  0
 13 33  1  0  0  0  0
 13 34  1  0  0  0  0
 14 35  1  0  0  0  0
 14 36  1  0  0  0  0
 15 37  1  0  0  0  0
 15 38  1  0  0  0  0
 18 39  1  0  0  0  0
 18 40  1  0  0  0  0
 19 41  1  0  0  0  0
 20 42  1  0  0  0  0
 20 43  1  0  0  0  0
 24 44  1  0  0  0  0
 25 45  1  0  0  0  0
 27 46  1  0  0  0  0
 27 47  1  0  0  0  0
 27 48  1  0  0  0  0
M  ISO  1   5  18
M  END
>  <Molecule ChEMBL ID>
CHEMBL5206801

>  <Molecule Name>


>  <Molecule Max Phase>
None

>  <Molecular Weight>
393.86

>  <#RO5 Violations>
0

>  <AlogP>
3.31

>  <Compound Key>
[18F]56, [18F]F15599

>  <Smiles>
Cc1cnc(CNCC2(F)CCN(C(=O)c3ccc([18F])c(Cl)c3)CC2)nc1

>  <Standard Type>
Ki

>  <Standard Relation>
'='

>  <Standard Value>
2.24

>  <Standard Units>
nM

>  <pChEMBL Value>
8.65

>  <Data Validity Comment>


>  <Comment>


>  <Uo Units>
UO_0000065

>  <Ligand Efficiency BEI>
21.91

>  <Ligand Efficiency LE>
0.44

>  <Ligand Efficiency LLE>
5.34

>  <Ligand Efficiency SEI>
14.88

>  <Potential Duplicate>
0

>  <Assay ChEMBL ID>
CHEMBL5109864

>  <Assay Description>
Binding affinity to 5-HT1A receptor (unknown origin) assessed as inhibition constant

>  <Assay Type>
B

>  <BAO Format ID>
BAO_0000357

>  <BAO Label>
single protein format

>  <Assay Organism>
Homo sapiens

>  <Assay Tissue ChEMBL ID>
None

>  <Assay Tissue Name>
None

>  <Assay Cell Type>
None

>  <Assay Subcellular Fraction>
None

>  <Assay Parameters>


>  <Assay Variant Accession>


>  <Assay Variant Mutation>


>  <Target ChEMBL ID>
CHEMBL214

>  <Target Name>
Serotonin 1a (5-HT1a) receptor

>  <Target Organism>
Homo sapiens

>  <SmilesFragFp 3>


>  <Target Type>
SINGLE PROTEIN

>  <Document ChEMBL ID>
CHEMBL5108009

>  <Source ID>
1

>  <Source Description>
Scientific Literature

>  <Document Journal>
J Med Chem

>  <Document Year>
2022

>  <Cell ChEMBL ID>
None

>  <SmilesFragFp 4>


>  <Properties>


>  <Action Type>
AGONIST

>  <Row-ID>
5937

>  <Neighbor Similarity FragFp 95%>
1; 1; 1; 0.97525

>  <Neighbor Count>
4

>  <Neighbor>
2303; 5662; 5841; 5842

>  <Neighbor Analysis X>
-0.39608875

>  <Neighbor Analysis Y>
-0.5032167

>  <Row-ID 2>
5937

>  <Neighbor Similarity FragFp 95% 2>
1; 1; 1; 0.97525

>  <Neighbor Count 2>
4

>  <Neighbor 2>
2303; 5662; 5841; 5842

>  <Neighbor Analysis X 2>
0.5548601

>  <Neighbor Analysis Y 2>
0.6075809

>  <SALI pChEMBL Value/FragFp>
0; 0; 0; 70.7

>  <MMFF94 Energy>


>  <MMFF94 Energy 2>
66.12

$$$$
CHEMBL230963
Actelion Java MolfileCreator 1.0

 48 50  0  0  0  0  0  0  0  0999 V2000
    2.9056   -7.5191   -0.5645 Cl  0  0  0  0  0  0  0  0  0  0  0  0
    2.1139   -6.0284   -0.2258 C   0  0  0  0  0  0  0  0  0  0  0  0
    0.7629   -6.0055    0.1251 C   0  0  0  0  0  0  0  0  0  0  0  0
    2.8337   -4.8378   -0.3044 C   0  0  0  0  0  0  0  0  0  0  0  0
    0.0569   -7.1429    0.2028 F   0  0  0  0  0  0  0  0  0  0  0  0
    0.1192   -4.8018    0.4080 C   0  0  0  0  0  0  0  0  0  0  0  0
    2.1815   -3.6285   -0.0434 C   0  0  0  0  0  0  0  0  0  0  0  0
    0.8315   -3.6050    0.3319 C   0  0  0  0  0  0  0  0  0  0  0  0
    2.9596   -2.3757   -0.0931 C   0  0  0  0  0  0  0  0  0  0  0  0
    3.8896   -2.2689    0.7014 O   0  0  0  0  0  0  0  0  0  0  0  0
    2.5989   -1.3952   -1.0091 N   0  0  0  0  0  0  0  0  0  0  0  0
    1.6555   -1.5551   -2.1152 C   0  0  0  0  0  0  0  0  0  0  0  0
    3.2723   -0.1018   -0.9665 C   0  0  0  0  0  0  0  0  0  0  0  0
    0.5797   -0.4779   -2.0549 C   0  0  0  0  0  0  0  0  0  0  0  0
    2.2473    1.0241   -0.8731 C   0  0  0  0  0  0  0  0  0  0  0  0
    1.2147    0.9186   -2.0029 C   0  0  0  0  0  0  0  0  0  0  0  0
    1.8881    1.1032   -3.1856 F   0  0  0  0  0  0  0  0  0  0  0  0
    0.1462    2.0340   -1.9294 C   0  0  0  0  0  0  0  0  0  0  0  0
   -0.7061    1.9819   -0.7387 N   0  0  0  0  0  0  0  0  0  0  0  0
   -1.7637    3.0148   -0.7999 C   0  0  0  0  0  0  0  0  0  0  0  0
   -2.4958    3.1877    0.5235 C   0  0  0  0  0  0  0  0  0  0  0  0
   -3.8433    3.1890    0.5108 N   0  0  0  0  0  0  0  0  0  0  0  0
   -1.7385    3.3581    1.6313 N   0  0  0  0  0  0  0  0  0  0  0  0
   -4.4523    3.3584    1.7006 C   0  0  0  0  0  0  0  0  0  0  0  0
   -2.4051    3.5232    2.7903 C   0  0  0  0  0  0  0  0  0  0  0  0
   -3.7802    3.5453    2.8902 C   0  0  0  0  0  0  0  0  0  0  0  0
   -4.4857    3.6920    4.1933 C   0  0  0  0  0  0  0  0  0  0  0  0
    3.8904   -4.8418   -0.5595 H   0  0  0  0  0  0  0  0  0  0  0  0
   -0.9286   -4.8079    0.6932 H   0  0  0  0  0  0  0  0  0  0  0  0
    0.3432   -2.6633    0.5723 H   0  0  0  0  0  0  0  0  0  0  0  0
    2.2303   -1.4694   -3.0455 H   0  0  0  0  0  0  0  0  0  0  0  0
    1.1983   -2.5464   -2.1253 H   0  0  0  0  0  0  0  0  0  0  0  0
    3.9596   -0.0407   -0.1167 H   0  0  0  0  0  0  0  0  0  0  0  0
    3.8726   -0.0081   -1.8791 H   0  0  0  0  0  0  0  0  0  0  0  0
   -0.0597   -0.5668   -2.9406 H   0  0  0  0  0  0  0  0  0  0  0  0
   -0.0470   -0.6457   -1.1710 H   0  0  0  0  0  0  0  0  0  0  0  0
    2.7706    1.9853   -0.9305 H   0  0  0  0  0  0  0  0  0  0  0  0
    1.7522    0.9702    0.1037 H   0  0  0  0  0  0  0  0  0  0  0  0
   -0.4758    1.9624   -2.8311 H   0  0  0  0  0  0  0  0  0  0  0  0
    0.6526    3.0061   -1.9863 H   0  0  0  0  0  0  0  0  0  0  0  0
   -0.1597    2.1827    0.1033 H   0  0  0  0  0  0  0  0  0  0  0  0
   -1.3322    3.9906   -1.0538 H   0  0  0  0  0  0  0  0  0  0  0  0
   -2.4866    2.7477   -1.5790 H   0  0  0  0  0  0  0  0  0  0  0  0
   -5.5382    3.3378    1.6620 H   0  0  0  0  0  0  0  0  0  0  0  0
   -1.7728    3.6411    3.6663 H   0  0  0  0  0  0  0  0  0  0  0  0
   -3.9029    4.3076    4.8866 H   0  0  0  0  0  0  0  0  0  0  0  0
   -5.4554    4.1831    4.0600 H   0  0  0  0  0  0  0  0  0  0  0  0
   -4.6484    2.7095    4.6469 H   0  0  0  0  0  0  0  0  0  0  0  0
  1  2  1  0  0  0  0
  2  3  2  0  0  0  0
  2  4  1  0  0  0  0
  3  5  1  0  0  0  0
  3  6  1  0  0  0  0
  4  7  2  0  0  0  0
  6  8  2  0  0  0  0
  7  9  1  0  0  0  0
  9 10  2  0  0  0  0
  9 11  1  0  0  0  0
 11 12  1  0  0  0  0
 11 13  1  0  0  0  0
 12 14  1  0  0  0  0
 13 15  1  0  0  0  0
 14 16  1  0  0  0  0
 16 17  1  0  0  0  0
 16 18  1  0  0  0  0
 18 19  1  0  0  0  0
 19 20  1  0  0  0  0
 20 21  1  0  0  0  0
 21 22  2  0  0  0  0
 21 23  1  0  0  0  0
 22 24  1  0  0  0  0
 23 25  2  0  0  0  0
 24 26  2  0  0  0  0
 26 27  1  0  0  0  0
  7  8  1  0  0  0  0
 15 16  1  0  0  0  0
 25 26  1  0  0  0  0
  4 28  1  0  0  0  0
  6 29  1  0  0  0  0
  8 30  1  0  0  0  0
 12 31  1  0  0  0  0
 12 32  1  0  0  0  0
 13 33  1  0  0  0  0
 13 34  1  0  0  0  0
 14 35  1  0  0  0  0
 14 36  1  0  0  0  0
 15 37  1  0  0  0  0
 15 38  1  0  0  0  0
 18 39  1  0  0  0  0
 18 40  1  0  0  0  0
 19 41  1  0  0  0  0
 20 42  1  0  0  0  0
 20 43  1  0  0  0  0
 24 44  1  0  0  0  0
 25 45  1  0  0  0  0
 27 46  1  0  0  0  0
 27 47  1  0  0  0  0
 27 48  1  0  0  0  0
M  END
>  <Molecule ChEMBL ID>
CHEMBL230963

>  <Molecule Name>


>  <Molecule Max Phase>
None

>  <Molecular Weight>
394.85

>  <#RO5 Violations>
0

>  <AlogP>
3.31

>  <Compound Key>
1, NLX-101, F15599

>  <Smiles>
Cc1cnc(CNCC2(F)CCN(C(=O)c3ccc(F)c(Cl)c3)CC2)nc1

>  <Standard Type>
Ki

>  <Standard Relation>
'='

>  <Standard Value>
2.188

>  <Standard Units>
nM

>  <pChEMBL Value>
8.66

>  <Data Validity Comment>


>  <Comment>


>  <Uo Units>
UO_0000065

>  <Ligand Efficiency BEI>
21.93

>  <Ligand Efficiency LE>
0.44

>  <Ligand Efficiency LLE>
5.35

>  <Ligand Efficiency SEI>
14.90

>  <Potential Duplicate>
0

>  <Assay ChEMBL ID>
CHEMBL4670397

>  <Assay Description>
Displacement of [3H]8-OH-DPAT from human 5-HT1A receptor stably expressed in CHO-K1 cell membranes measured after 60 mins by Microbeta2 scintillation counting method

>  <Assay Type>
B

>  <BAO Format ID>
BAO_0000219

>  <BAO Label>
cell-based format

>  <Assay Organism>
Homo sapiens

>  <Assay Tissue ChEMBL ID>
None

>  <Assay Tissue Name>
None

>  <Assay Cell Type>
CHO-K1

>  <Assay Subcellular Fraction>
None

>  <Assay Parameters>


>  <Assay Variant Accession>


>  <Assay Variant Mutation>


>  <Target ChEMBL ID>
CHEMBL214

>  <Target Name>
Serotonin 1a (5-HT1a) receptor

>  <Target Organism>
Homo sapiens

>  <SmilesFragFp 3>


>  <Target Type>
SINGLE PROTEIN

>  <Document ChEMBL ID>
CHEMBL4665789

>  <Source ID>
1

>  <Source Description>
Scientific Literature

>  <Document Journal>
J Med Chem

>  <Document Year>
2020

>  <Cell ChEMBL ID>
None

>  <SmilesFragFp 4>


>  <Properties>
TIME = 1.0 hr

>  <Action Type>
AGONIST

>  <Row-ID>
2303

>  <Neighbor Similarity FragFp 95%>
1; 0.97525; 1; 1

>  <Neighbor Count>
4

>  <Neighbor>
5937; 5842; 5841; 5662

>  <Neighbor Analysis X>
-0.41634342

>  <Neighbor Analysis Y>
-0.5163283

>  <Row-ID 2>
2303

>  <Neighbor Similarity FragFp 95% 2>
1; 1; 0.97525; 1

>  <Neighbor Count 2>
4

>  <Neighbor 2>
5937; 5841; 5842; 5662

>  <Neighbor Analysis X 2>
0.5331903

>  <Neighbor Analysis Y 2>
0.6191948

>  <SALI pChEMBL Value/FragFp>
0; 0; 70.296

>  <MMFF94 Energy>


>  <MMFF94 Energy 2>
66.15

$$$$
CHEMBL230963
Actelion Java MolfileCreator 1.0

 48 50  0  0  0  0  0  0  0  0999 V2000
   -1.0485   -7.5191   -3.0672 Cl  0  0  0  0  0  0  0  0  0  0  0  0
   -0.5928   -6.8927   -1.5298 C   0  0  0  0  0  0  0  0  0  0  0  0
   -0.9356   -7.5673   -0.3569 C   0  0  0  0  0  0  0  0  0  0  0  0
    0.1245   -5.6991   -1.4643 C   0  0  0  0  0  0  0  0  0  0  0  0
   -1.6280   -8.7147   -0.4053 F   0  0  0  0  0  0  0  0  0  0  0  0
   -0.5614   -7.0661    0.8884 C   0  0  0  0  0  0  0  0  0  0  0  0
    0.4775   -5.1820   -0.2121 C   0  0  0  0  0  0  0  0  0  0  0  0
    0.1557   -5.8717    0.9634 C   0  0  0  0  0  0  0  0  0  0  0  0
    1.2696   -3.9387   -0.1153 C   0  0  0  0  0  0  0  0  0  0  0  0
    2.3538   -4.0149    0.4562 O   0  0  0  0  0  0  0  0  0  0  0  0
    0.7623   -2.7674   -0.6671 N   0  0  0  0  0  0  0  0  0  0  0  0
   -0.6136   -2.5504   -1.1115 C   0  0  0  0  0  0  0  0  0  0  0  0
    1.6229   -1.5905   -0.7439 C   0  0  0  0  0  0  0  0  0  0  0  0
   -1.2575   -1.4222   -0.3109 C   0  0  0  0  0  0  0  0  0  0  0  0
    1.0424   -0.4390    0.0670 C   0  0  0  0  0  0  0  0  0  0  0  0
   -0.4025   -0.1501   -0.3576 C   0  0  0  0  0  0  0  0  0  0  0  0
   -0.3856    0.2802   -1.6598 F   0  0  0  0  0  0  0  0  0  0  0  0
   -1.0578    0.9639    0.4918 C   0  0  0  0  0  0  0  0  0  0  0  0
   -0.3097    2.2238    0.4371 N   0  0  0  0  0  0  0  0  0  0  0  0
   -1.0171    3.3023    1.1550 C   0  0  0  0  0  0  0  0  0  0  0  0
   -0.3812    4.6700    0.9508 C   0  0  0  0  0  0  0  0  0  0  0  0
   -0.0362    5.3810    2.0434 N   0  0  0  0  0  0  0  0  0  0  0  0
   -0.2230    5.0968   -0.3223 N   0  0  0  0  0  0  0  0  0  0  0  0
    0.5210    6.5871    1.8206 C   0  0  0  0  0  0  0  0  0  0  0  0
    0.3390    6.3106   -0.4803 C   0  0  0  0  0  0  0  0  0  0  0  0
    0.7270    7.1207    0.5659 C   0  0  0  0  0  0  0  0  0  0  0  0
    1.3819    8.4412    0.3554 C   0  0  0  0  0  0  0  0  0  0  0  0
    0.4153   -5.1785   -2.3729 H   0  0  0  0  0  0  0  0  0  0  0  0
   -0.8232   -7.6138    1.7890 H   0  0  0  0  0  0  0  0  0  0  0  0
    0.4710   -5.4817    1.9293 H   0  0  0  0  0  0  0  0  0  0  0  0
   -0.5833   -2.3031   -2.1789 H   0  0  0  0  0  0  0  0  0  0  0  0
   -1.2240   -3.4479   -0.9939 H   0  0  0  0  0  0  0  0  0  0  0  0
    2.6353   -1.8166   -0.3941 H   0  0  0  0  0  0  0  0  0  0  0  0
    1.7027   -1.3127   -1.8018 H   0  0  0  0  0  0  0  0  0  0  0  0
   -2.2531   -1.2225   -0.7241 H   0  0  0  0  0  0  0  0  0  0  0  0
   -1.3871   -1.7445    0.7302 H   0  0  0  0  0  0  0  0  0  0  0  0
    1.6746    0.4423   -0.0879 H   0  0  0  0  0  0  0  0  0  0  0  0
    1.0727   -0.6908    1.1345 H   0  0  0  0  0  0  0  0  0  0  0  0
   -1.1387    0.6319    1.5339 H   0  0  0  0  0  0  0  0  0  0  0  0
   -2.0721    1.1344    0.1095 H   0  0  0  0  0  0  0  0  0  0  0  0
   -0.2087    2.5197   -0.5391 H   0  0  0  0  0  0  0  0  0  0  0  0
   -2.0546    3.3779    0.8072 H   0  0  0  0  0  0  0  0  0  0  0  0
   -1.0361    3.0732    2.2268 H   0  0  0  0  0  0  0  0  0  0  0  0
    0.8068    7.1279    2.7190 H   0  0  0  0  0  0  0  0  0  0  0  0
    0.4716    6.6189   -1.5139 H   0  0  0  0  0  0  0  0  0  0  0  0
    1.1586    9.1247    1.1815 H   0  0  0  0  0  0  0  0  0  0  0  0
    1.0212    8.9147   -0.5638 H   0  0  0  0  0  0  0  0  0  0  0  0
    2.4669    8.3173    0.2850 H   0  0  0  0  0  0  0  0  0  0  0  0
  1  2  1  0  0  0  0
  2  3  2  0  0  0  0
  2  4  1  0  0  0  0
  3  5  1  0  0  0  0
  3  6  1  0  0  0  0
  4  7  2  0  0  0  0
  6  8  2  0  0  0  0
  7  9  1  0  0  0  0
  9 10  2  0  0  0  0
  9 11  1  0  0  0  0
 11 12  1  0  0  0  0
 11 13  1  0  0  0  0
 12 14  1  0  0  0  0
 13 15  1  0  0  0  0
 14 16  1  0  0  0  0
 16 17  1  0  0  0  0
 16 18  1  0  0  0  0
 18 19  1  0  0  0  0
 19 20  1  0  0  0  0
 20 21  1  0  0  0  0
 21 22  2  0  0  0  0
 21 23  1  0  0  0  0
 22 24  1  0  0  0  0
 23 25  2  0  0  0  0
 24 26  2  0  0  0  0
 26 27  1  0  0  0  0
  7  8  1  0  0  0  0
 15 16  1  0  0  0  0
 25 26  1  0  0  0  0
  4 28  1  0  0  0  0
  6 29  1  0  0  0  0
  8 30  1  0  0  0  0
 12 31  1  0  0  0  0
 12 32  1  0  0  0  0
 13 33  1  0  0  0  0
 13 34  1  0  0  0  0
 14 35  1  0  0  0  0
 14 36  1  0  0  0  0
 15 37  1  0  0  0  0
 15 38  1  0  0  0  0
 18 39  1  0  0  0  0
 18 40  1  0  0  0  0
 19 41  1  0  0  0  0
 20 42  1  0  0  0  0
 20 43  1  0  0  0  0
 24 44  1  0  0  0  0
 25 45  1  0  0  0  0
 27 46  1  0  0  0  0
 27 47  1  0  0  0  0
 27 48  1  0  0  0  0
M  END
>  <Molecule ChEMBL ID>
CHEMBL230963

>  <Molecule Name>


>  <Molecule Max Phase>
None

>  <Molecular Weight>
394.85

>  <#RO5 Violations>
0

>  <AlogP>
3.31

>  <Compound Key>
1

>  <Smiles>
Cc1cnc(CNCC2(F)CCN(C(=O)c3ccc(F)c(Cl)c3)CC2)nc1

>  <Standard Type>
Ki

>  <Standard Relation>
'='

>  <Standard Value>
2.188

>  <Standard Units>
nM

>  <pChEMBL Value>
8.66

>  <Data Validity Comment>


>  <Comment>


>  <Uo Units>
UO_0000065

>  <Ligand Efficiency BEI>
21.93

>  <Ligand Efficiency LE>
0.44

>  <Ligand Efficiency LLE>
5.35

>  <Ligand Efficiency SEI>
14.90

>  <Potential Duplicate>
1

>  <Assay ChEMBL ID>
CHEMBL4707367

>  <Assay Description>
Displacement of [3H]8-OH-DPAT from recombinant human 5HT1A receptor stably expressed in CHO-K1 cell membranes measured after 60 mins by microbeta2 scintillation counting method

>  <Assay Type>
B

>  <BAO Format ID>
BAO_0000249

>  <BAO Label>
cell membrane format

>  <Assay Organism>
Homo sapiens

>  <Assay Tissue ChEMBL ID>
None

>  <Assay Tissue Name>
None

>  <Assay Cell Type>
CHO-K1

>  <Assay Subcellular Fraction>
Cell membrane

>  <Assay Parameters>


>  <Assay Variant Accession>


>  <Assay Variant Mutation>


>  <Target ChEMBL ID>
CHEMBL214

>  <Target Name>
Serotonin 1a (5-HT1a) receptor

>  <Target Organism>
Homo sapiens

>  <SmilesFragFp 3>


>  <Target Type>
SINGLE PROTEIN

>  <Document ChEMBL ID>
CHEMBL4706479

>  <Source ID>
1

>  <Source Description>
Scientific Literature

>  <Document Journal>
J Med Chem

>  <Document Year>
2019

>  <Cell ChEMBL ID>
None

>  <SmilesFragFp 4>


>  <Properties>
TIME = 1.0 hr

>  <Action Type>
AGONIST

>  <Row-ID>
5662

>  <Neighbor Similarity FragFp 95%>
1; 0.97525; 1; 1

>  <Neighbor Count>
4

>  <Neighbor>
5937; 5842; 5841; 2303

>  <Neighbor Analysis X>
-0.41766277

>  <Neighbor Analysis Y>
-0.49092022

>  <Row-ID 2>
5662

>  <Neighbor Similarity FragFp 95% 2>
1; 1; 0.97525; 1

>  <Neighbor Count 2>
4

>  <Neighbor 2>
5937; 5841; 5842; 2303

>  <Neighbor Analysis X 2>
0.57616854

>  <Neighbor Analysis Y 2>
0.5941813

>  <SALI pChEMBL Value/FragFp>
0; 0; 70.296

>  <MMFF94 Energy>


>  <MMFF94 Energy 2>
66.62

$$$$
CHEMBL45305
Actelion Java MolfileCreator 1.0

 49 51  0  0  0  0  0  0  0  0999 V2000
    2.5791   -2.8212    4.5975 Cl  0  0  0  0  0  0  0  0  0  0  0  0
    2.6947   -3.7754    3.1695 C   0  0  0  0  0  0  0  0  0  0  0  0
    3.8212   -4.5638    2.9292 C   0  0  0  0  0  0  0  0  0  0  0  0
    1.6482   -3.7542    2.2490 C   0  0  0  0  0  0  0  0  0  0  0  0
    4.8357   -4.5916    3.8058 F   0  0  0  0  0  0  0  0  0  0  0  0
    3.9131   -5.3426    1.7772 C   0  0  0  0  0  0  0  0  0  0  0  0
    1.7526   -4.5171    1.0803 C   0  0  0  0  0  0  0  0  0  0  0  0
    2.8710   -5.3269    0.8496 C   0  0  0  0  0  0  0  0  0  0  0  0
    0.6428   -4.5383    0.1076 C   0  0  0  0  0  0  0  0  0  0  0  0
    0.0797   -5.6153   -0.0677 O   0  0  0  0  0  0  0  0  0  0  0  0
    0.2880   -3.3590   -0.5376 N   0  0  0  0  0  0  0  0  0  0  0  0
   -0.8760   -3.3557   -1.4166 C   0  0  0  0  0  0  0  0  0  0  0  0
    1.0594   -2.1164   -0.5452 C   0  0  0  0  0  0  0  0  0  0  0  0
   -1.8158   -2.2131   -1.0492 C   0  0  0  0  0  0  0  0  0  0  0  0
    0.1788   -0.9410   -0.1408 C   0  0  0  0  0  0  0  0  0  0  0  0
   -1.0741   -0.8707   -1.0245 C   0  0  0  0  0  0  0  0  0  0  0  0
   -0.6684   -0.6016   -2.3065 F   0  0  0  0  0  0  0  0  0  0  0  0
   -2.0360    0.2611   -0.5939 C   0  0  0  0  0  0  0  0  0  0  0  0
   -1.3873    1.5795   -0.6035 N   0  0  0  0  0  0  0  0  0  0  0  0
   -2.3545    2.6462   -0.3084 C   0  0  0  0  0  0  0  0  0  0  0  0
   -1.7209    4.0201   -0.4024 C   0  0  0  0  0  0  0  0  0  0  0  0
   -2.0325    4.7777   -1.4839 N   0  0  0  0  0  0  0  0  0  0  0  0
   -0.8333    4.4522    0.5807 C   0  0  0  0  0  0  0  0  0  0  0  0
   -1.4506    5.9954   -1.5763 C   0  0  0  0  0  0  0  0  0  0  0  0
   -0.2507    5.7113    0.4576 C   0  0  0  0  0  0  0  0  0  0  0  0
   -0.5507    6.5057   -0.6483 C   0  0  0  0  0  0  0  0  0  0  0  0
    0.0257    7.8765   -0.8025 C   0  0  0  0  0  0  0  0  0  0  0  0
    0.7581   -3.1604    2.4374 H   0  0  0  0  0  0  0  0  0  0  0  0
    4.7911   -5.9606    1.6150 H   0  0  0  0  0  0  0  0  0  0  0  0
    2.9233   -5.9446   -0.0447 H   0  0  0  0  0  0  0  0  0  0  0  0
   -0.5151   -3.2470   -2.4463 H   0  0  0  0  0  0  0  0  0  0  0  0
   -1.4175   -4.3054   -1.3603 H   0  0  0  0  0  0  0  0  0  0  0  0
    1.9356   -2.1724    0.1035 H   0  0  0  0  0  0  0  0  0  0  0  0
    1.4379   -1.9769   -1.5653 H   0  0  0  0  0  0  0  0  0  0  0  0
   -2.6321   -2.1795   -1.7799 H   0  0  0  0  0  0  0  0  0  0  0  0
   -2.2574   -2.4107   -0.0642 H   0  0  0  0  0  0  0  0  0  0  0  0
    0.7693   -0.0228   -0.2349 H   0  0  0  0  0  0  0  0  0  0  0  0
   -0.1137   -1.0462    0.9113 H   0  0  0  0  0  0  0  0  0  0  0  0
   -2.8841    0.2752   -1.2899 H   0  0  0  0  0  0  0  0  0  0  0  0
   -2.4229    0.0521    0.4108 H   0  0  0  0  0  0  0  0  0  0  0  0
   -1.0151    1.7515   -1.5426 H   0  0  0  0  0  0  0  0  0  0  0  0
   -2.7672    2.5192    0.7000 H   0  0  0  0  0  0  0  0  0  0  0  0
   -3.1943    2.6024   -1.0132 H   0  0  0  0  0  0  0  0  0  0  0  0
   -0.5938    3.8144    1.4255 H   0  0  0  0  0  0  0  0  0  0  0  0
   -1.7408    6.5688   -2.4529 H   0  0  0  0  0  0  0  0  0  0  0  0
    0.4379    6.0613    1.2223 H   0  0  0  0  0  0  0  0  0  0  0  0
    1.0184    7.9370   -0.3441 H   0  0  0  0  0  0  0  0  0  0  0  0
    0.1405    8.1356   -1.8604 H   0  0  0  0  0  0  0  0  0  0  0  0
   -0.6278    8.6144   -0.3269 H   0  0  0  0  0  0  0  0  0  0  0  0
  1  2  1  0  0  0  0
  2  3  2  0  0  0  0
  2  4  1  0  0  0  0
  3  5  1  0  0  0  0
  3  6  1  0  0  0  0
  4  7  2  0  0  0  0
  6  8  2  0  0  0  0
  7  9  1  0  0  0  0
  9 10  2  0  0  0  0
  9 11  1  0  0  0  0
 11 12  1  0  0  0  0
 11 13  1  0  0  0  0
 12 14  1  0  0  0  0
 13 15  1  0  0  0  0
 14 16  1  0  0  0  0
 16 17  1  0  0  0  0
 16 18  1  0  0  0  0
 18 19  1  0  0  0  0
 19 20  1  0  0  0  0
 20 21  1  0  0  0  0
 21 22  2  0  0  0  0
 21 23  1  0  0  0  0
 22 24  1  0  0  0  0
 23 25  2  0  0  0  0
 24 26  2  0  0  0  0
 26 27  1  0  0  0  0
  7  8  1  0  0  0  0
 15 16  1  0  0  0  0
 25 26  1  0  0  0  0
  4 28  1  0  0  0  0
  6 29  1  0  0  0  0
  8 30  1  0  0  0  0
 12 31  1  0  0  0  0
 12 32  1  0  0  0  0
 13 33  1  0  0  0  0
 13 34  1  0  0  0  0
 14 35  1  0  0  0  0
 14 36  1  0  0  0  0
 15 37  1  0  0  0  0
 15 38  1  0  0  0  0
 18 39  1  0  0  0  0
 18 40  1  0  0  0  0
 19 41  1  0  0  0  0
 20 42  1  0  0  0  0
 20 43  1  0  0  0  0
 23 44  1  0  0  0  0
 24 45  1  0  0  0  0
 25 46  1  0  0  0  0
 27 47  1  0  0  0  0
 27 48  1  0  0  0  0
 27 49  1  0  0  0  0
M  END
>  <Molecule ChEMBL ID>
CHEMBL45305

>  <Molecule Name>
BEFIRADOL

>  <Molecule Max Phase>
2.0

>  <Molecular Weight>
393.87

>  <#RO5 Violations>
0

>  <AlogP>
3.92

>  <Compound Key>
F13640, 58

>  <Smiles>
Cc1ccc(CNCC2(F)CCN(C(=O)c3ccc(F)c(Cl)c3)CC2)nc1

>  <Standard Type>
Ki

>  <Standard Relation>
'='

>  <Standard Value>
1.0

>  <Standard Units>
nM

>  <pChEMBL Value>
9.00

>  <Data Validity Comment>


>  <Comment>


>  <Uo Units>
UO_0000065

>  <Ligand Efficiency BEI>
22.85

>  <Ligand Efficiency LE>
0.46

>  <Ligand Efficiency LLE>
5.08

>  <Ligand Efficiency SEI>
19.90

>  <Potential Duplicate>
0

>  <Assay ChEMBL ID>
CHEMBL5109864

>  <Assay Description>
Binding affinity to 5-HT1A receptor (unknown origin) assessed as inhibition constant

>  <Assay Type>
B

>  <BAO Format ID>
BAO_0000357

>  <BAO Label>
single protein format

>  <Assay Organism>
Homo sapiens

>  <Assay Tissue ChEMBL ID>
None

>  <Assay Tissue Name>
None

>  <Assay Cell Type>
None

>  <Assay Subcellular Fraction>
None

>  <Assay Parameters>


>  <Assay Variant Accession>


>  <Assay Variant Mutation>


>  <Target ChEMBL ID>
CHEMBL214

>  <Target Name>
Serotonin 1a (5-HT1a) receptor

>  <Target Organism>
Homo sapiens

>  <SmilesFragFp 3>


>  <Target Type>
SINGLE PROTEIN

>  <Document ChEMBL ID>
CHEMBL5108009

>  <Source ID>
1

>  <Source Description>
Scientific Literature

>  <Document Journal>
J Med Chem

>  <Document Year>
2022

>  <Cell ChEMBL ID>
None

>  <SmilesFragFp 4>


>  <Properties>


>  <Action Type>
AGONIST

>  <Row-ID>
5841

>  <Neighbor Similarity FragFp 95%>
1; 1; 0.97525; 1

>  <Neighbor Count>
4

>  <Neighbor>
5937; 2303; 5842; 5662

>  <Neighbor Analysis X>
-0.39468

>  <Neighbor Analysis Y>
-0.5283617

>  <Row-ID 2>
5841

>  <Neighbor Similarity FragFp 95% 2>
1; 1; 1; 0.97525

>  <Neighbor Count 2>
4

>  <Neighbor 2>
5937; 2303; 5662; 5842

>  <Neighbor Analysis X 2>
0.5529202

>  <Neighbor Analysis Y 2>
0.6311058

>  <SALI pChEMBL Value/FragFp>
0; 0; 0; 56.56

>  <MMFF94 Energy>


>  <MMFF94 Energy 2>
68.015

$$$$
CHEMBL4793515
Actelion Java MolfileCreator 1.0

 51 53  0  0  0  0  0  0  0  0999 V2000
    2.3622   -8.0812    2.1176 Cl  0  0  0  0  0  0  0  0  0  0  0  0
    1.7605   -6.5180    2.5143 C   0  0  0  0  0  0  0  0  0  0  0  0
    0.4285   -6.3452    2.8951 C   0  0  0  0  0  0  0  0  0  0  0  0
    2.6154   -5.4193    2.4525 C   0  0  0  0  0  0  0  0  0  0  0  0
   -0.4069   -7.3924    2.9572 F   0  0  0  0  0  0  0  0  0  0  0  0
   -0.0623   -5.0824    3.2243 C   0  0  0  0  0  0  0  0  0  0  0  0
    2.1160   -4.1502    2.7616 C   0  0  0  0  0  0  0  0  0  0  0  0
    0.7855   -3.9765    3.1650 C   0  0  0  0  0  0  0  0  0  0  0  0
    3.0341   -2.9971    2.7271 C   0  0  0  0  0  0  0  0  0  0  0  0
    3.9434   -2.9889    3.5516 O   0  0  0  0  0  0  0  0  0  0  0  0
    2.8187   -1.9949    1.7888 N   0  0  0  0  0  0  0  0  0  0  0  0
    1.8762   -2.0492    0.6729 C   0  0  0  0  0  0  0  0  0  0  0  0
    3.6866   -0.8227    1.7926 C   0  0  0  0  0  0  0  0  0  0  0  0
    0.9842   -0.8130    0.6690 C   0  0  0  0  0  0  0  0  0  0  0  0
    2.8545    0.4536    1.8139 C   0  0  0  0  0  0  0  0  0  0  0  0
    1.8275    0.4689    0.6724 C   0  0  0  0  0  0  0  0  0  0  0  0
    2.5296    0.5072   -0.5021 F   0  0  0  0  0  0  0  0  0  0  0  0
    0.9659    1.7553    0.7657 C   0  0  0  0  0  0  0  0  0  0  0  0
   -0.0629    1.8779   -0.2763 N   0  0  0  0  0  0  0  0  0  0  0  0
   -0.7495    3.1737   -0.2081 C   0  0  0  0  0  0  0  0  0  0  0  0
   -1.8856    3.3094   -1.2353 C   0  0  0  0  0  0  0  0  0  0  0  0
   -1.2722    3.3347   -2.9573 S   0  0  0  0  0  0  0  0  0  0  0  0
   -2.7997    3.6736   -3.8114 C   0  0  0  0  0  0  0  0  0  0  0  0
   -3.8679    2.7720   -3.7751 C   0  0  0  0  0  0  0  0  0  0  0  0
   -2.9216    4.8509   -4.5552 C   0  0  0  0  0  0  0  0  0  0  0  0
   -5.0531    3.0557   -4.4578 C   0  0  0  0  0  0  0  0  0  0  0  0
   -4.1068    5.1347   -5.2373 C   0  0  0  0  0  0  0  0  0  0  0  0
   -5.1730    4.2383   -5.1858 C   0  0  0  0  0  0  0  0  0  0  0  0
    3.6591   -5.5407    2.1740 H   0  0  0  0  0  0  0  0  0  0  0  0
   -1.0981   -4.9744    3.5324 H   0  0  0  0  0  0  0  0  0  0  0  0
    0.4186   -2.9909    3.4403 H   0  0  0  0  0  0  0  0  0  0  0  0
    2.4676   -2.0978   -0.2496 H   0  0  0  0  0  0  0  0  0  0  0  0
    1.2636   -2.9525    0.6967 H   0  0  0  0  0  0  0  0  0  0  0  0
    4.3619   -0.8326    2.6541 H   0  0  0  0  0  0  0  0  0  0  0  0
    4.3088   -0.8667    0.8909 H   0  0  0  0  0  0  0  0  0  0  0  0
    0.3518   -0.8556   -0.2245 H   0  0  0  0  0  0  0  0  0  0  0  0
    0.3284   -0.8299    1.5482 H   0  0  0  0  0  0  0  0  0  0  0  0
    3.5277    1.3142    1.7261 H   0  0  0  0  0  0  0  0  0  0  0  0
    2.3378    0.5314    2.7790 H   0  0  0  0  0  0  0  0  0  0  0  0
    1.6429    2.6151    0.6858 H   0  0  0  0  0  0  0  0  0  0  0  0
    0.4847    1.7973    1.7508 H   0  0  0  0  0  0  0  0  0  0  0  0
   -0.7386    1.1197   -0.2158 H   0  0  0  0  0  0  0  0  0  0  0  0
   -1.1891    3.2938    0.7901 H   0  0  0  0  0  0  0  0  0  0  0  0
   -0.0305    3.9905   -0.3471 H   0  0  0  0  0  0  0  0  0  0  0  0
   -2.5983    2.4869   -1.1121 H   0  0  0  0  0  0  0  0  0  0  0  0
   -2.4205    4.2469   -1.0462 H   0  0  0  0  0  0  0  0  0  0  0  0
   -3.7831    1.8369   -3.2283 H   0  0  0  0  0  0  0  0  0  0  0  0
   -2.0951    5.5555   -4.6095 H   0  0  0  0  0  0  0  0  0  0  0  0
   -5.8792    2.3500   -4.4279 H   0  0  0  0  0  0  0  0  0  0  0  0
   -4.1947    6.0529   -5.8122 H   0  0  0  0  0  0  0  0  0  0  0  0
   -6.0938    4.4575   -5.7204 H   0  0  0  0  0  0  0  0  0  0  0  0
  1  2  1  0  0  0  0
  2  3  2  0  0  0  0
  2  4  1  0  0  0  0
  3  5  1  0  0  0  0
  3  6  1  0  0  0  0
  4  7  2  0  0  0  0
  6  8  2  0  0  0  0
  7  9  1  0  0  0  0
  9 10  2  0  0  0  0
  9 11  1  0  0  0  0
 11 12  1  0  0  0  0
 11 13  1  0  0  0  0
 12 14  1  0  0  0  0
 13 15  1  0  0  0  0
 14 16  1  0  0  0  0
 16 17  1  0  0  0  0
 16 18  1  0  0  0  0
 18 19  1  0  0  0  0
 19 20  1  0  0  0  0
 20 21  1  0  0  0  0
 21 22  1  0  0  0  0
 22 23  1  0  0  0  0
 23 24  2  0  0  0  0
 23 25  1  0  0  0  0
 24 26  1  0  0  0  0
 25 27  2  0  0  0  0
 26 28  2  0  0  0  0
  7  8  1  0  0  0  0
 15 16  1  0  0  0  0
 27 28  1  0  0  0  0
  4 29  1  0  0  0  0
  6 30  1  0  0  0  0
  8 31  1  0  0  0  0
 12 32  1  0  0  0  0
 12 33  1  0  0  0  0
 13 34  1  0  0  0  0
 13 35  1  0  0  0  0
 14 36  1  0  0  0  0
 14 37  1  0  0  0  0
 15 38  1  0  0  0  0
 15 39  1  0  0  0  0
 18 40  1  0  0  0  0
 18 41  1  0  0  0  0
 19 42  1  0  0  0  0
 20 43  1  0  0  0  0
 20 44  1  0  0  0  0
 21 45  1  0  0  0  0
 21 46  1  0  0  0  0
 24 47  1  0  0  0  0
 25 48  1  0  0  0  0
 26 49  1  0  0  0  0
 27 50  1  0  0  0  0
 28 51  1  0  0  0  0
M  END
>  <Molecule ChEMBL ID>
CHEMBL4793515

>  <Molecule Name>


>  <Molecule Max Phase>
None

>  <Molecular Weight>
424.94

>  <#RO5 Violations>
0

>  <AlogP>
4.81

>  <Compound Key>
14

>  <Smiles>
O=C(c1ccc(F)c(Cl)c1)N1CCC(F)(CNCCSc2ccccc2)CC1

>  <Standard Type>
Ki

>  <Standard Relation>
'='

>  <Standard Value>
0.5623

>  <Standard Units>
nM

>  <pChEMBL Value>
9.25

>  <Data Validity Comment>


>  <Comment>


>  <Uo Units>
UO_0000065

>  <Ligand Efficiency BEI>
21.77

>  <Ligand Efficiency LE>
0.45

>  <Ligand Efficiency LLE>
4.44

>  <Ligand Efficiency SEI>
28.60

>  <Potential Duplicate>
0

>  <Assay ChEMBL ID>
CHEMBL4707367

>  <Assay Description>
Displacement of [3H]8-OH-DPAT from recombinant human 5HT1A receptor stably expressed in CHO-K1 cell membranes measured after 60 mins by microbeta2 scintillation counting method

>  <Assay Type>
B

>  <BAO Format ID>
BAO_0000249

>  <BAO Label>
cell membrane format

>  <Assay Organism>
Homo sapiens

>  <Assay Tissue ChEMBL ID>
None

>  <Assay Tissue Name>
None

>  <Assay Cell Type>
CHO-K1

>  <Assay Subcellular Fraction>
Cell membrane

>  <Assay Parameters>


>  <Assay Variant Accession>


>  <Assay Variant Mutation>


>  <Target ChEMBL ID>
CHEMBL214

>  <Target Name>
Serotonin 1a (5-HT1a) receptor

>  <Target Organism>
Homo sapiens

>  <SmilesFragFp 3>


>  <Target Type>
SINGLE PROTEIN

>  <Document ChEMBL ID>
CHEMBL4706479

>  <Source ID>
1

>  <Source Description>
Scientific Literature

>  <Document Journal>
J Med Chem

>  <Document Year>
2019

>  <Cell ChEMBL ID>
None

>  <SmilesFragFp 4>


>  <Properties>
TIME = 1.0 hr

>  <Action Type>
PARTIAL AGONIST

>  <Row-ID>
5171

>  <Neighbor Similarity FragFp 95%>
0.97129; 0.99029; 0.97596

>  <Neighbor Count>
3

>  <Neighbor>
5661; 5208; 4306

>  <Neighbor Analysis X>
0.6925856

>  <Neighbor Analysis Y>
0.12679347

>  <Row-ID 2>
5171

>  <Neighbor Similarity FragFp 95% 2>
0.97129; 0.99029; 0.97596

>  <Neighbor Count 2>
3

>  <Neighbor 2>
5661; 5208; 4306

>  <Neighbor Analysis X 2>
-0.36202797

>  <Neighbor Analysis Y 2>
0.83839595

>  <SALI pChEMBL Value/FragFp>
12.192; 4.12; 21.632

>  <MMFF94 Energy>


>  <MMFF94 Energy 2>
69.671

$$$$
CHEMBL4754363
Actelion Java MolfileCreator 1.0

 53 55  0  0  0  0  0  0  0  0999 V2000
    1.0439   -9.6674    0.1605 Cl  0  0  0  0  0  0  0  0  0  0  0  0
    0.2633   -8.1829    0.5482 C   0  0  0  0  0  0  0  0  0  0  0  0
   -1.1283   -8.1145    0.6384 C   0  0  0  0  0  0  0  0  0  0  0  0
    1.0326   -7.0427    0.7720 C   0  0  0  0  0  0  0  0  0  0  0  0
   -1.8823   -9.2025    0.4230 F   0  0  0  0  0  0  0  0  0  0  0  0
   -1.7654   -6.9162    0.9585 C   0  0  0  0  0  0  0  0  0  0  0  0
    0.3913   -5.8362    1.0703 C   0  0  0  0  0  0  0  0  0  0  0  0
   -1.0038   -5.7695    1.1833 C   0  0  0  0  0  0  0  0  0  0  0  0
    1.2131   -4.6412    1.3390 C   0  0  0  0  0  0  0  0  0  0  0  0
    1.9456   -4.6836    2.3232 O   0  0  0  0  0  0  0  0  0  0  0  0
    1.1086   -3.5480    0.4863 N   0  0  0  0  0  0  0  0  0  0  0  0
    0.4399   -3.5363   -0.8132 C   0  0  0  0  0  0  0  0  0  0  0  0
    1.8582   -2.3349    0.7985 C   0  0  0  0  0  0  0  0  0  0  0  0
   -0.5163   -2.3546   -0.9088 C   0  0  0  0  0  0  0  0  0  0  0  0
    0.9548   -1.1086    0.7323 C   0  0  0  0  0  0  0  0  0  0  0  0
    0.2121   -1.0385   -0.6077 C   0  0  0  0  0  0  0  0  0  0  0  0
    1.1416   -0.8501   -1.5988 F   0  0  0  0  0  0  0  0  0  0  0  0
   -0.7797    0.1464   -0.6724 C   0  0  0  0  0  0  0  0  0  0  0  0
   -0.1196    1.4417   -0.4581 N   0  0  0  0  0  0  0  0  0  0  0  0
   -1.0493    2.5556   -0.6392 C   0  0  0  0  0  0  0  0  0  0  0  0
   -0.3168    3.8810   -0.4238 C   0  0  0  0  0  0  0  0  0  0  0  0
   -1.2724    5.0656   -0.5841 C   0  0  0  0  0  0  0  0  0  0  0  0
   -0.5661    6.3845   -0.3941 C   0  0  0  0  0  0  0  0  0  0  0  0
   -0.4177    6.9322    0.8872 C   0  0  0  0  0  0  0  0  0  0  0  0
   -0.0246    7.0662   -1.4920 C   0  0  0  0  0  0  0  0  0  0  0  0
    0.2501    8.1449    1.0651 C   0  0  0  0  0  0  0  0  0  0  0  0
    0.6427    8.2790   -1.3121 C   0  0  0  0  0  0  0  0  0  0  0  0
    0.7789    8.8185   -0.0344 C   0  0  0  0  0  0  0  0  0  0  0  0
    2.1179   -7.0845    0.7227 H   0  0  0  0  0  0  0  0  0  0  0  0
   -2.8481   -6.8903    1.0387 H   0  0  0  0  0  0  0  0  0  0  0  0
   -1.4893   -4.8355    1.4557 H   0  0  0  0  0  0  0  0  0  0  0  0
    1.2217   -3.4596   -1.5790 H   0  0  0  0  0  0  0  0  0  0  0  0
   -0.0945   -4.4678   -1.0090 H   0  0  0  0  0  0  0  0  0  0  0  0
    2.3146   -2.3977    1.7917 H   0  0  0  0  0  0  0  0  0  0  0  0
    2.6742   -2.2546    0.0703 H   0  0  0  0  0  0  0  0  0  0  0  0
   -0.9417   -2.3266   -1.9186 H   0  0  0  0  0  0  0  0  0  0  0  0
   -1.3428   -2.4947   -0.2009 H   0  0  0  0  0  0  0  0  0  0  0  0
    1.5758   -0.2176    0.8774 H   0  0  0  0  0  0  0  0  0  0  0  0
    0.2290   -1.1481    1.5544 H   0  0  0  0  0  0  0  0  0  0  0  0
   -1.2495    0.1481   -1.6639 H   0  0  0  0  0  0  0  0  0  0  0  0
   -1.5676    0.0079    0.0779 H   0  0  0  0  0  0  0  0  0  0  0  0
    0.6590    1.5261   -1.1164 H   0  0  0  0  0  0  0  0  0  0  0  0
   -1.4763    2.5343   -1.6491 H   0  0  0  0  0  0  0  0  0  0  0  0
   -1.8728    2.4733    0.0801 H   0  0  0  0  0  0  0  0  0  0  0  0
    0.5091    3.9709   -1.1417 H   0  0  0  0  0  0  0  0  0  0  0  0
    0.1321    3.8990    0.5781 H   0  0  0  0  0  0  0  0  0  0  0  0
   -1.7397    5.0424   -1.5770 H   0  0  0  0  0  0  0  0  0  0  0  0
   -2.0958    4.9889    0.1376 H   0  0  0  0  0  0  0  0  0  0  0  0
   -0.8199    6.4150    1.7555 H   0  0  0  0  0  0  0  0  0  0  0  0
   -0.1180    6.6557   -2.4946 H   0  0  0  0  0  0  0  0  0  0  0  0
    0.3597    8.5627    2.0624 H   0  0  0  0  0  0  0  0  0  0  0  0
    1.0585    8.8020   -2.1693 H   0  0  0  0  0  0  0  0  0  0  0  0
    1.2997    9.7621    0.1051 H   0  0  0  0  0  0  0  0  0  0  0  0
  1  2  1  0  0  0  0
  2  3  2  0  0  0  0
  2  4  1  0  0  0  0
  3  5  1  0  0  0  0
  3  6  1  0  0  0  0
  4  7  2  0  0  0  0
  6  8  2  0  0  0  0
  7  9  1  0  0  0  0
  9 10  2  0  0  0  0
  9 11  1  0  0  0  0
 11 12  1  0  0  0  0
 11 13  1  0  0  0  0
 12 14  1  0  0  0  0
 13 15  1  0  0  0  0
 14 16  1  0  0  0  0
 16 17  1  0  0  0  0
 16 18  1  0  0  0  0
 18 19  1  0  0  0  0
 19 20  1  0  0  0  0
 20 21  1  0  0  0  0
 21 22  1  0  0  0  0
 22 23  1  0  0  0  0
 23 24  2  0  0  0  0
 23 25  1  0  0  0  0
 24 26  1  0  0  0  0
 25 27  2  0  0  0  0
 26 28  2  0  0  0  0
  7  8  1  0  0  0  0
 15 16  1  0  0  0  0
 27 28  1  0  0  0  0
  4 29  1  0  0  0  0
  6 30  1  0  0  0  0
  8 31  1  0  0  0  0
 12 32  1  0  0  0  0
 12 33  1  0  0  0  0
 13 34  1  0  0  0  0
 13 35  1  0  0  0  0
 14 36  1  0  0  0  0
 14 37  1  0  0  0  0
 15 38  1  0  0  0  0
 15 39  1  0  0  0  0
 18 40  1  0  0  0  0
 18 41  1  0  0  0  0
 19 42  1  0  0  0  0
 20 43  1  0  0  0  0
 20 44  1  0  0  0  0
 21 45  1  0  0  0  0
 21 46  1  0  0  0  0
 22 47  1  0  0  0  0
 22 48  1  0  0  0  0
 24 49  1  0  0  0  0
 25 50  1  0  0  0  0
 26 51  1  0  0  0  0
 27 52  1  0  0  0  0
 28 53  1  0  0  0  0
M  END
>  <Molecule ChEMBL ID>
CHEMBL4754363

>  <Molecule Name>


>  <Molecule Max Phase>
None

>  <Molecular Weight>
406.90

>  <#RO5 Violations>
0

>  <AlogP>
4.65

>  <Compound Key>
10

>  <Smiles>
O=C(c1ccc(F)c(Cl)c1)N1CCC(F)(CNCCCc2ccccc2)CC1

>  <Standard Type>
Ki

>  <Standard Relation>
'='

>  <Standard Value>
0.4786

>  <Standard Units>
nM

>  <pChEMBL Value>
9.32

>  <Data Validity Comment>


>  <Comment>


>  <Uo Units>
UO_0000065

>  <Ligand Efficiency BEI>
22.90

>  <Ligand Efficiency LE>
0.45

>  <Ligand Efficiency LLE>
4.67

>  <Ligand Efficiency SEI>
28.82

>  <Potential Duplicate>
0

>  <Assay ChEMBL ID>
CHEMBL4707367

>  <Assay Description>
Displacement of [3H]8-OH-DPAT from recombinant human 5HT1A receptor stably expressed in CHO-K1 cell membranes measured after 60 mins by microbeta2 scintillation counting method

>  <Assay Type>
B

>  <BAO Format ID>
BAO_0000249

>  <BAO Label>
cell membrane format

>  <Assay Organism>
Homo sapiens

>  <Assay Tissue ChEMBL ID>
None

>  <Assay Tissue Name>
None

>  <Assay Cell Type>
CHO-K1

>  <Assay Subcellular Fraction>
Cell membrane

>  <Assay Parameters>


>  <Assay Variant Accession>


>  <Assay Variant Mutation>


>  <Target ChEMBL ID>
CHEMBL214

>  <Target Name>
Serotonin 1a (5-HT1a) receptor

>  <Target Organism>
Homo sapiens

>  <SmilesFragFp 3>


>  <Target Type>
SINGLE PROTEIN

>  <Document ChEMBL ID>
CHEMBL4706479

>  <Source ID>
1

>  <Source Description>
Scientific Literature

>  <Document Journal>
J Med Chem

>  <Document Year>
2019

>  <Cell ChEMBL ID>
None

>  <SmilesFragFp 4>


>  <Properties>
TIME = 1.0 hr

>  <Action Type>
AGONIST

>  <Row-ID>
3703

>  <Neighbor Similarity FragFp 95%>
0.98068

>  <Neighbor Count>
1

>  <Neighbor>
5886

>  <Neighbor Analysis X>
0.6228697

>  <Neighbor Analysis Y>
0.1707171

>  <Row-ID 2>
3703

>  <Neighbor Similarity FragFp 95% 2>
0.98068

>  <Neighbor Count 2>
1

>  <Neighbor 2>
5886

>  <Neighbor Analysis X 2>
-0.28826815

>  <Neighbor Analysis Y 2>
0.8253666

>  <SALI pChEMBL Value/FragFp>
37.778

>  <MMFF94 Energy>


>  <MMFF94 Energy 2>
51.155

$$$$
CHEMBL4741857
Actelion Java MolfileCreator 1.0

 51 53  0  0  0  0  0  0  0  0999 V2000
   -0.9655   -7.8244   -2.9791 Cl  0  0  0  0  0  0  0  0  0  0  0  0
   -0.6924   -7.2434   -1.3820 C   0  0  0  0  0  0  0  0  0  0  0  0
   -1.1991   -7.9315   -0.2785 C   0  0  0  0  0  0  0  0  0  0  0  0
    0.0423   -6.0732   -1.1975 C   0  0  0  0  0  0  0  0  0  0  0  0
   -1.9099   -9.0567   -0.4416 F   0  0  0  0  0  0  0  0  0  0  0  0
   -0.9729   -7.4674    1.0157 C   0  0  0  0  0  0  0  0  0  0  0  0
    0.2470   -5.5924    0.1012 C   0  0  0  0  0  0  0  0  0  0  0  0
   -0.2397   -6.2964    1.2095 C   0  0  0  0  0  0  0  0  0  0  0  0
    1.0533   -4.3753    0.3275 C   0  0  0  0  0  0  0  0  0  0  0  0
    2.0486   -4.4926    1.0372 O   0  0  0  0  0  0  0  0  0  0  0  0
    0.6576   -3.1806   -0.2636 N   0  0  0  0  0  0  0  0  0  0  0  0
   -0.6441   -2.9110   -0.8721 C   0  0  0  0  0  0  0  0  0  0  0  0
    1.5541   -2.0301   -0.2038 C   0  0  0  0  0  0  0  0  0  0  0  0
   -1.3518   -1.7822   -0.1282 C   0  0  0  0  0  0  0  0  0  0  0  0
    0.9099   -0.8802    0.5594 C   0  0  0  0  0  0  0  0  0  0  0  0
   -0.4622   -0.5368   -0.0327 C   0  0  0  0  0  0  0  0  0  0  0  0
   -0.2705   -0.0755   -1.3099 F   0  0  0  0  0  0  0  0  0  0  0  0
   -1.1862    0.5759    0.7608 C   0  0  0  0  0  0  0  0  0  0  0  0
   -0.4043    1.8172    0.8278 N   0  0  0  0  0  0  0  0  0  0  0  0
   -1.1538    2.8939    1.4892 C   0  0  0  0  0  0  0  0  0  0  0  0
   -0.3869    4.2228    1.4140 C   0  0  0  0  0  0  0  0  0  0  0  0
   -0.3535    4.6494    0.0485 O   0  0  0  0  0  0  0  0  0  0  0  0
    0.2901    5.8255   -0.2200 C   0  0  0  0  0  0  0  0  0  0  0  0
    0.9222    6.6488    0.7126 C   0  0  0  0  0  0  0  0  0  0  0  0
    0.2879    6.1966   -1.5673 C   0  0  0  0  0  0  0  0  0  0  0  0
    1.5443    7.8309    0.2980 C   0  0  0  0  0  0  0  0  0  0  0  0
    0.9084    7.3761   -1.9821 C   0  0  0  0  0  0  0  0  0  0  0  0
    1.5373    8.1944   -1.0475 C   0  0  0  0  0  0  0  0  0  0  0  0
    0.4599   -5.5431   -2.0493 H   0  0  0  0  0  0  0  0  0  0  0  0
   -1.3613   -8.0255    1.8624 H   0  0  0  0  0  0  0  0  0  0  0  0
   -0.0392   -5.9360    2.2166 H   0  0  0  0  0  0  0  0  0  0  0  0
   -0.4721   -2.6401   -1.9200 H   0  0  0  0  0  0  0  0  0  0  0  0
   -1.2894   -3.7913   -0.8561 H   0  0  0  0  0  0  0  0  0  0  0  0
    2.5085   -2.2957    0.2619 H   0  0  0  0  0  0  0  0  0  0  0  0
    1.7719   -1.7313   -1.2361 H   0  0  0  0  0  0  0  0  0  0  0  0
   -2.2812   -1.5417   -0.6573 H   0  0  0  0  0  0  0  0  0  0  0  0
   -1.6205   -2.1245    0.8792 H   0  0  0  0  0  0  0  0  0  0  0  0
    1.5808   -0.0155    0.5074 H   0  0  0  0  0  0  0  0  0  0  0  0
    0.8002   -1.1572    1.6153 H   0  0  0  0  0  0  0  0  0  0  0  0
   -1.4000    0.2233    1.7769 H   0  0  0  0  0  0  0  0  0  0  0  0
   -2.1422    0.7849    0.2647 H   0  0  0  0  0  0  0  0  0  0  0  0
   -0.1752    2.1185   -0.1255 H   0  0  0  0  0  0  0  0  0  0  0  0
   -2.1287    3.0208    1.0035 H   0  0  0  0  0  0  0  0  0  0  0  0
   -1.3157    2.6331    2.5408 H   0  0  0  0  0  0  0  0  0  0  0  0
   -0.9192    4.9660    2.0197 H   0  0  0  0  0  0  0  0  0  0  0  0
    0.6305    4.0874    1.8013 H   0  0  0  0  0  0  0  0  0  0  0  0
    0.9524    6.4016    1.7681 H   0  0  0  0  0  0  0  0  0  0  0  0
   -0.2011    5.5598   -2.3002 H   0  0  0  0  0  0  0  0  0  0  0  0
    2.0367    8.4682    1.0281 H   0  0  0  0  0  0  0  0  0  0  0  0
    0.9004    7.6528   -3.0328 H   0  0  0  0  0  0  0  0  0  0  0  0
    2.0224    9.1130   -1.3666 H   0  0  0  0  0  0  0  0  0  0  0  0
  1  2  1  0  0  0  0
  2  3  2  0  0  0  0
  2  4  1  0  0  0  0
  3  5  1  0  0  0  0
  3  6  1  0  0  0  0
  4  7  2  0  0  0  0
  6  8  2  0  0  0  0
  7  9  1  0  0  0  0
  9 10  2  0  0  0  0
  9 11  1  0  0  0  0
 11 12  1  0  0  0  0
 11 13  1  0  0  0  0
 12 14  1  0  0  0  0
 13 15  1  0  0  0  0
 14 16  1  0  0  0  0
 16 17  1  0  0  0  0
 16 18  1  0  0  0  0
 18 19  1  0  0  0  0
 19 20  1  0  0  0  0
 20 21  1  0  0  0  0
 21 22  1  0  0  0  0
 22 23  1  0  0  0  0
 23 24  2  0  0  0  0
 23 25  1  0  0  0  0
 24 26  1  0  0  0  0
 25 27  2  0  0  0  0
 26 28  2  0  0  0  0
  7  8  1  0  0  0  0
 15 16  1  0  0  0  0
 27 28  1  0  0  0  0
  4 29  1  0  0  0  0
  6 30  1  0  0  0  0
  8 31  1  0  0  0  0
 12 32  1  0  0  0  0
 12 33  1  0  0  0  0
 13 34  1  0  0  0  0
 13 35  1  0  0  0  0
 14 36  1  0  0  0  0
 14 37  1  0  0  0  0
 15 38  1  0  0  0  0
 15 39  1  0  0  0  0
 18 40  1  0  0  0  0
 18 41  1  0  0  0  0
 19 42  1  0  0  0  0
 20 43  1  0  0  0  0
 20 44  1  0  0  0  0
 21 45  1  0  0  0  0
 21 46  1  0  0  0  0
 24 47  1  0  0  0  0
 25 48  1  0  0  0  0
 26 49  1  0  0  0  0
 27 50  1  0  0  0  0
 28 51  1  0  0  0  0
M  END
>  <Molecule ChEMBL ID>
CHEMBL4741857

>  <Molecule Name>


>  <Molecule Max Phase>
None

>  <Molecular Weight>
408.88

>  <#RO5 Violations>
0

>  <AlogP>
4.09

>  <Compound Key>
3, NLX-219

>  <Smiles>
O=C(c1ccc(F)c(Cl)c1)N1CCC(F)(CNCCOc2ccccc2)CC1

>  <Standard Type>
Ki

>  <Standard Relation>
'='

>  <Standard Value>
0.06166

>  <Standard Units>
nM

>  <pChEMBL Value>
10.21

>  <Data Validity Comment>


>  <Comment>


>  <Uo Units>
UO_0000065

>  <Ligand Efficiency BEI>
24.97

>  <Ligand Efficiency LE>
0.50

>  <Ligand Efficiency LLE>
6.12

>  <Ligand Efficiency SEI>
24.56

>  <Potential Duplicate>
0

>  <Assay ChEMBL ID>
CHEMBL4670397

>  <Assay Description>
Displacement of [3H]8-OH-DPAT from human 5-HT1A receptor stably expressed in CHO-K1 cell membranes measured after 60 mins by Microbeta2 scintillation counting method

>  <Assay Type>
B

>  <BAO Format ID>
BAO_0000219

>  <BAO Label>
cell-based format

>  <Assay Organism>
Homo sapiens

>  <Assay Tissue ChEMBL ID>
None

>  <Assay Tissue Name>
None

>  <Assay Cell Type>
CHO-K1

>  <Assay Subcellular Fraction>
None

>  <Assay Parameters>


>  <Assay Variant Accession>


>  <Assay Variant Mutation>


>  <Target ChEMBL ID>
CHEMBL214

>  <Target Name>
Serotonin 1a (5-HT1a) receptor

>  <Target Organism>
Homo sapiens

>  <SmilesFragFp 3>


>  <Target Type>
SINGLE PROTEIN

>  <Document ChEMBL ID>
CHEMBL4665789

>  <Source ID>
1

>  <Source Description>
Scientific Literature

>  <Document Journal>
J Med Chem

>  <Document Year>
2020

>  <Cell ChEMBL ID>
None

>  <SmilesFragFp 4>


>  <Properties>
TIME = 1.0 hr

>  <Action Type>
AGONIST

>  <Row-ID>
5182

>  <Neighbor Similarity FragFp 95%>
0.97674; 1; 0.97674; 0.97674; 0.97674; 0.97674; 0.98157; 0.97674; 1; 0.9907; 0.9907; 0.98157; 0.98611; 0.97674; 0.9907; 0.9907; 0.97674; 0.9907; 0.9907; 0.9907; 0.98157; 0.98611

>  <Neighbor Count>
22

>  <Neighbor>
5829; 5820; 5744; 5691; 5690; 5663; 5462; 5209; 941; 2302; 2306; 2674; 2678; 3354; 4308; 4547; 4917; 5018; 5035; 5036; 5037; 5183

>  <Neighbor Analysis X>
0.32240662

>  <Neighbor Analysis Y>
-0.22491288

>  <Row-ID 2>
5182

>  <Neighbor Similarity FragFp 95% 2>
0.97674; 1; 0.97674; 0.97674; 0.97674; 0.97674; 0.98157; 0.97674; 0.98611; 1; 0.9907; 0.9907; 0.98157; 0.98611; 0.97674; 0.9907; 0.9907; 0.97674; 0.9907; 0.9907; 0.9907; 0.98157

>  <Neighbor Count 2>
22

>  <Neighbor 2>
5829; 5820; 5744; 5690; 5691; 5663; 5462; 5209; 5183; 941; 2302; 2306; 2674; 2678; 3354; 4308; 4547; 4917; 5018; 5035; 5036; 5037

>  <Neighbor Analysis X 2>
0.43353537

>  <Neighbor Analysis Y 2>
-0.32331553

>  <SALI pChEMBL Value/FragFp>
39.99; 151.79; 0.86002; 59.77; 118.68; 110.13; 11.18; 7.92; 0; 31.175; 38.7; 70.525; 129.6; 150.93; 51.6; 61.275; 163.4; 1.075; 11.825; 41.925; 17.36

>  <MMFF94 Energy>


>  <MMFF94 Energy 2>
69.877

$$$$
CHEMBL4741857
Actelion Java MolfileCreator 1.0

 51 53  0  0  0  0  0  0  0  0999 V2000
    4.9952   -1.5288    5.4796 Cl  0  0  0  0  0  0  0  0  0  0  0  0
    4.8580   -2.6787    4.2062 C   0  0  0  0  0  0  0  0  0  0  0  0
    5.8818   -3.5949    3.9602 C   0  0  0  0  0  0  0  0  0  0  0  0
    3.7095   -2.6869    3.4167 C   0  0  0  0  0  0  0  0  0  0  0  0
    6.9929   -3.5959    4.7110 F   0  0  0  0  0  0  0  0  0  0  0  0
    5.7691   -4.5304    2.9334 C   0  0  0  0  0  0  0  0  0  0  0  0
    3.6086   -3.6103    2.3702 C   0  0  0  0  0  0  0  0  0  0  0  0
    4.6238   -4.5452    2.1370 C   0  0  0  0  0  0  0  0  0  0  0  0
    2.3883   -3.6591    1.5425 C   0  0  0  0  0  0  0  0  0  0  0  0
    1.7133   -4.6822    1.6109 O   0  0  0  0  0  0  0  0  0  0  0  0
    2.0640   -2.5603    0.7554 N   0  0  0  0  0  0  0  0  0  0  0  0
    0.8114   -2.5695    0.0079 C   0  0  0  0  0  0  0  0  0  0  0  0
    2.9321   -1.4197    0.4690 C   0  0  0  0  0  0  0  0  0  0  0  0
    0.0183   -1.2941    0.2734 C   0  0  0  0  0  0  0  0  0  0  0  0
    2.2046   -0.1167    0.7731 C   0  0  0  0  0  0  0  0  0  0  0  0
    0.8702   -0.0448    0.0152 C   0  0  0  0  0  0  0  0  0  0  0  0
    1.1702   -0.0099   -1.3199 F   0  0  0  0  0  0  0  0  0  0  0  0
    0.1323    1.2689    0.3841 C   0  0  0  0  0  0  0  0  0  0  0  0
   -1.1510    1.4618   -0.3028 N   0  0  0  0  0  0  0  0  0  0  0  0
   -1.7556    2.7593    0.0312 C   0  0  0  0  0  0  0  0  0  0  0  0
   -3.1362    2.9491   -0.6219 C   0  0  0  0  0  0  0  0  0  0  0  0
   -2.9792    3.0997   -2.0326 O   0  0  0  0  0  0  0  0  0  0  0  0
   -4.1170    3.2508   -2.7753 C   0  0  0  0  0  0  0  0  0  0  0  0
   -5.4181    3.3430   -2.2790 C   0  0  0  0  0  0  0  0  0  0  0  0
   -3.9063    3.3203   -4.1548 C   0  0  0  0  0  0  0  0  0  0  0  0
   -6.4951    3.5003   -3.1575 C   0  0  0  0  0  0  0  0  0  0  0  0
   -4.9802    3.4770   -5.0326 C   0  0  0  0  0  0  0  0  0  0  0  0
   -6.2766    3.5670   -4.5325 C   0  0  0  0  0  0  0  0  0  0  0  0
    2.8976   -1.9927    3.6139 H   0  0  0  0  0  0  0  0  0  0  0  0
    6.5701   -5.2444    2.7668 H   0  0  0  0  0  0  0  0  0  0  0  0
    4.5164   -5.2823    1.3439 H   0  0  0  0  0  0  0  0  0  0  0  0
    1.0608   -2.6568   -1.0563 H   0  0  0  0  0  0  0  0  0  0  0  0
    0.2006   -3.4391    0.2705 H   0  0  0  0  0  0  0  0  0  0  0  0
    3.8699   -1.4667    1.0255 H   0  0  0  0  0  0  0  0  0  0  0  0
    3.1984   -1.4720   -0.5937 H   0  0  0  0  0  0  0  0  0  0  0  0
   -0.8623   -1.3021   -0.3780 H   0  0  0  0  0  0  0  0  0  0  0  0
   -0.3321   -1.2938    1.3131 H   0  0  0  0  0  0  0  0  0  0  0  0
    2.8476    0.7216    0.4811 H   0  0  0  0  0  0  0  0  0  0  0  0
    2.0260   -0.0415    1.8530 H   0  0  0  0  0  0  0  0  0  0  0  0
    0.7907    2.1069    0.1230 H   0  0  0  0  0  0  0  0  0  0  0  0
   -0.0310    1.2963    1.4688 H   0  0  0  0  0  0  0  0  0  0  0  0
   -1.8005    0.7072   -0.0923 H   0  0  0  0  0  0  0  0  0  0  0  0
   -1.8765    2.8368    1.1180 H   0  0  0  0  0  0  0  0  0  0  0  0
   -1.0901    3.5630   -0.3046 H   0  0  0  0  0  0  0  0  0  0  0  0
   -3.7750    2.0869   -0.3934 H   0  0  0  0  0  0  0  0  0  0  0  0
   -3.5869    3.8588   -0.2064 H   0  0  0  0  0  0  0  0  0  0  0  0
   -5.6304    3.2985   -1.2167 H   0  0  0  0  0  0  0  0  0  0  0  0
   -2.8948    3.2484   -4.5471 H   0  0  0  0  0  0  0  0  0  0  0  0
   -7.5069    3.5714   -2.7666 H   0  0  0  0  0  0  0  0  0  0  0  0
   -4.8020    3.5276   -6.1031 H   0  0  0  0  0  0  0  0  0  0  0  0
   -7.1153    3.6888   -5.2128 H   0  0  0  0  0  0  0  0  0  0  0  0
  1  2  1  0  0  0  0
  2  3  2  0  0  0  0
  2  4  1  0  0  0  0
  3  5  1  0  0  0  0
  3  6  1  0  0  0  0
  4  7  2  0  0  0  0
  6  8  2  0  0  0  0
  7  9  1  0  0  0  0
  9 10  2  0  0  0  0
  9 11  1  0  0  0  0
 11 12  1  0  0  0  0
 11 13  1  0  0  0  0
 12 14  1  0  0  0  0
 13 15  1  0  0  0  0
 14 16  1  0  0  0  0
 16 17  1  0  0  0  0
 16 18  1  0  0  0  0
 18 19  1  0  0  0  0
 19 20  1  0  0  0  0
 20 21  1  0  0  0  0
 21 22  1  0  0  0  0
 22 23  1  0  0  0  0
 23 24  2  0  0  0  0
 23 25  1  0  0  0  0
 24 26  1  0  0  0  0
 25 27  2  0  0  0  0
 26 28  2  0  0  0  0
  7  8  1  0  0  0  0
 15 16  1  0  0  0  0
 27 28  1  0  0  0  0
  4 29  1  0  0  0  0
  6 30  1  0  0  0  0
  8 31  1  0  0  0  0
 12 32  1  0  0  0  0
 12 33  1  0  0  0  0
 13 34  1  0  0  0  0
 13 35  1  0  0  0  0
 14 36  1  0  0  0  0
 14 37  1  0  0  0  0
 15 38  1  0  0  0  0
 15 39  1  0  0  0  0
 18 40  1  0  0  0  0
 18 41  1  0  0  0  0
 19 42  1  0  0  0  0
 20 43  1  0  0  0  0
 20 44  1  0  0  0  0
 21 45  1  0  0  0  0
 21 46  1  0  0  0  0
 24 47  1  0  0  0  0
 25 48  1  0  0  0  0
 26 49  1  0  0  0  0
 27 50  1  0  0  0  0
 28 51  1  0  0  0  0
M  END
>  <Molecule ChEMBL ID>
CHEMBL4741857

>  <Molecule Name>


>  <Molecule Max Phase>
None

>  <Molecular Weight>
408.88

>  <#RO5 Violations>
0

>  <AlogP>
4.09

>  <Compound Key>
16

>  <Smiles>
O=C(c1ccc(F)c(Cl)c1)N1CCC(F)(CNCCOc2ccccc2)CC1

>  <Standard Type>
Ki

>  <Standard Relation>
'='

>  <Standard Value>
0.06166

>  <Standard Units>
nM

>  <pChEMBL Value>
10.21

>  <Data Validity Comment>


>  <Comment>


>  <Uo Units>
UO_0000065

>  <Ligand Efficiency BEI>
24.97

>  <Ligand Efficiency LE>
0.50

>  <Ligand Efficiency LLE>
6.12

>  <Ligand Efficiency SEI>
24.56

>  <Potential Duplicate>
1

>  <Assay ChEMBL ID>
CHEMBL4707367

>  <Assay Description>
Displacement of [3H]8-OH-DPAT from recombinant human 5HT1A receptor stably expressed in CHO-K1 cell membranes measured after 60 mins by microbeta2 scintillation counting method

>  <Assay Type>
B

>  <BAO Format ID>
BAO_0000249

>  <BAO Label>
cell membrane format

>  <Assay Organism>
Homo sapiens

>  <Assay Tissue ChEMBL ID>
None

>  <Assay Tissue Name>
None

>  <Assay Cell Type>
CHO-K1

>  <Assay Subcellular Fraction>
Cell membrane

>  <Assay Parameters>


>  <Assay Variant Accession>


>  <Assay Variant Mutation>


>  <Target ChEMBL ID>
CHEMBL214

>  <Target Name>
Serotonin 1a (5-HT1a) receptor

>  <Target Organism>
Homo sapiens

>  <SmilesFragFp 3>


>  <Target Type>
SINGLE PROTEIN

>  <Document ChEMBL ID>
CHEMBL4706479

>  <Source ID>
1

>  <Source Description>
Scientific Literature

>  <Document Journal>
J Med Chem

>  <Document Year>
2019

>  <Cell ChEMBL ID>
None

>  <SmilesFragFp 4>


>  <Properties>
TIME = 1.0 hr

>  <Action Type>
AGONIST

>  <Row-ID>
5820

>  <Neighbor Similarity FragFp 95%>
0.97674; 1; 0.9907; 0.9907; 0.98157; 0.98611; 0.97674; 0.9907; 0.9907; 0.97674; 0.9907; 0.9907; 0.9907; 0.98157; 1; 0.98611; 0.97674; 0.98157; 0.97674; 0.97674; 0.97674; 0.97674

>  <Neighbor Count>
22

>  <Neighbor>
5829; 941; 2302; 2306; 2674; 2678; 3354; 4308; 4547; 4917; 5018; 5035; 5036; 5037; 5182; 5183; 5209; 5462; 5663; 5690; 5691; 5744

>  <Neighbor Analysis X>
0.3058467

>  <Neighbor Analysis Y>
-0.20492916

>  <Row-ID 2>
5820

>  <Neighbor Similarity FragFp 95% 2>
0.97674; 1; 0.9907; 0.9907; 0.98157; 0.98611; 0.97674; 0.9907; 0.9907; 0.97674; 0.9907; 0.9907; 0.9907; 0.98157; 1; 0.98611; 0.97674; 0.98157; 0.97674; 0.97674; 0.97674; 0.97674

>  <Neighbor Count 2>
22

>  <Neighbor 2>
5829; 941; 2302; 2306; 2674; 2678; 3354; 4308; 4547; 4917; 5018; 5035; 5036; 5037; 5182; 5183; 5209; 5462; 5663; 5690; 5691; 5744

>  <Neighbor Analysis X 2>
0.42941394

>  <Neighbor Analysis Y 2>
-0.34964472

>  <SALI pChEMBL Value/FragFp>
39.99; 0; 31.175; 38.7; 70.525; 129.6; 150.93; 51.6; 61.275; 163.4; 1.075; 11.825; 41.925; 17.36; 7.92; 11.18; 110.13; 118.68; 0.86002; 59.77; 151.79

>  <MMFF94 Energy>


>  <MMFF94 Energy 2>
76.454

$$$$
CHEMBL4742112
Actelion Java MolfileCreator 1.0

 51 53  0  0  0  0  0  0  0  0999 V2000
   -0.0809   -6.2449    3.2404 Cl  0  0  0  0  0  0  0  0  0  0  0  0
    0.8125   -5.7596    1.8435 C   0  0  0  0  0  0  0  0  0  0  0  0
    0.7455   -6.4586    0.6303 C   0  0  0  0  0  0  0  0  0  0  0  0
    1.6220   -4.6264    1.9529 C   0  0  0  0  0  0  0  0  0  0  0  0
   -0.2383   -7.8638    0.4247 Cl  0  0  0  0  0  0  0  0  0  0  0  0
    1.4963   -6.0258   -0.4691 C   0  0  0  0  0  0  0  0  0  0  0  0
    2.3487   -4.1863    0.8434 C   0  0  0  0  0  0  0  0  0  0  0  0
    2.3054   -4.8931   -0.3628 C   0  0  0  0  0  0  0  0  0  0  0  0
    3.2268   -3.0080    0.9890 C   0  0  0  0  0  0  0  0  0  0  0  0
    4.0883   -3.0598    1.8627 O   0  0  0  0  0  0  0  0  0  0  0  0
    3.0411   -1.9176    0.1473 N   0  0  0  0  0  0  0  0  0  0  0  0
    1.8699   -1.6691   -0.6918 C   0  0  0  0  0  0  0  0  0  0  0  0
    4.0137   -0.8312    0.1693 C   0  0  0  0  0  0  0  0  0  0  0  0
    1.1546   -0.3984   -0.2389 C   0  0  0  0  0  0  0  0  0  0  0  0
    3.3625    0.4541    0.6616 C   0  0  0  0  0  0  0  0  0  0  0  0
    2.1206    0.7918   -0.1757 C   0  0  0  0  0  0  0  0  0  0  0  0
    2.5502    1.0468   -1.4514 F   0  0  0  0  0  0  0  0  0  0  0  0
    1.4536    2.0777    0.3768 C   0  0  0  0  0  0  0  0  0  0  0  0
    0.2467    2.4927   -0.3520 N   0  0  0  0  0  0  0  0  0  0  0  0
   -0.2755    3.7695    0.1575 C   0  0  0  0  0  0  0  0  0  0  0  0
   -1.6345    4.0943   -0.4806 C   0  0  0  0  0  0  0  0  0  0  0  0
   -2.5867    3.1259   -0.0264 O   0  0  0  0  0  0  0  0  0  0  0  0
   -3.8708    3.2590   -0.4776 C   0  0  0  0  0  0  0  0  0  0  0  0
   -4.3322    4.2263   -1.3714 C   0  0  0  0  0  0  0  0  0  0  0  0
   -4.7679    2.3147    0.0292 C   0  0  0  0  0  0  0  0  0  0  0  0
   -5.6783    4.2467   -1.7508 C   0  0  0  0  0  0  0  0  0  0  0  0
   -6.1116    2.3344   -0.3485 C   0  0  0  0  0  0  0  0  0  0  0  0
   -6.5670    3.3024   -1.2399 C   0  0  0  0  0  0  0  0  0  0  0  0
    1.6961   -4.0874    2.8949 H   0  0  0  0  0  0  0  0  0  0  0  0
    1.4602   -6.5728   -1.4087 H   0  0  0  0  0  0  0  0  0  0  0  0
    2.9047   -4.5707   -1.2114 H   0  0  0  0  0  0  0  0  0  0  0  0
    2.2165   -1.5728   -1.7271 H   0  0  0  0  0  0  0  0  0  0  0  0
    1.1598   -2.4973   -0.6536 H   0  0  0  0  0  0  0  0  0  0  0  0
    4.8711   -1.0799    0.8028 H   0  0  0  0  0  0  0  0  0  0  0  0
    4.3923   -0.7061   -0.8521 H   0  0  0  0  0  0  0  0  0  0  0  0
    0.3421   -0.1988   -0.9461 H   0  0  0  0  0  0  0  0  0  0  0  0
    0.7074   -0.5644    0.7492 H   0  0  0  0  0  0  0  0  0  0  0  0
    4.0939    1.2678    0.5953 H   0  0  0  0  0  0  0  0  0  0  0  0
    3.0826    0.3403    1.7164 H   0  0  0  0  0  0  0  0  0  0  0  0
    2.1889    2.8897    0.3163 H   0  0  0  0  0  0  0  0  0  0  0  0
    1.2032    1.9288    1.4347 H   0  0  0  0  0  0  0  0  0  0  0  0
   -0.4903    1.7915   -0.2544 H   0  0  0  0  0  0  0  0  0  0  0  0
   -0.4016    3.7102    1.2452 H   0  0  0  0  0  0  0  0  0  0  0  0
    0.4315    4.5738   -0.0728 H   0  0  0  0  0  0  0  0  0  0  0  0
   -1.9419    5.0959   -0.1568 H   0  0  0  0  0  0  0  0  0  0  0  0
   -1.5475    4.0660   -1.5738 H   0  0  0  0  0  0  0  0  0  0  0  0
   -3.6736    4.9771   -1.7943 H   0  0  0  0  0  0  0  0  0  0  0  0
   -4.4172    1.5578    0.7259 H   0  0  0  0  0  0  0  0  0  0  0  0
   -6.0326    5.0017   -2.4481 H   0  0  0  0  0  0  0  0  0  0  0  0
   -6.7995    1.5953    0.0531 H   0  0  0  0  0  0  0  0  0  0  0  0
   -7.6124    3.3209   -1.5370 H   0  0  0  0  0  0  0  0  0  0  0  0
  1  2  1  0  0  0  0
  2  3  2  0  0  0  0
  2  4  1  0  0  0  0
  3  5  1  0  0  0  0
  3  6  1  0  0  0  0
  4  7  2  0  0  0  0
  6  8  2  0  0  0  0
  7  9  1  0  0  0  0
  9 10  2  0  0  0  0
  9 11  1  0  0  0  0
 11 12  1  0  0  0  0
 11 13  1  0  0  0  0
 12 14  1  0  0  0  0
 13 15  1  0  0  0  0
 14 16  1  0  0  0  0
 16 17  1  0  0  0  0
 16 18  1  0  0  0  0
 18 19  1  0  0  0  0
 19 20  1  0  0  0  0
 20 21  1  0  0  0  0
 21 22  1  0  0  0  0
 22 23  1  0  0  0  0
 23 24  2  0  0  0  0
 23 25  1  0  0  0  0
 24 26  1  0  0  0  0
 25 27  2  0  0  0  0
 26 28  2  0  0  0  0
  7  8  1  0  0  0  0
 15 16  1  0  0  0  0
 27 28  1  0  0  0  0
  4 29  1  0  0  0  0
  6 30  1  0  0  0  0
  8 31  1  0  0  0  0
 12 32  1  0  0  0  0
 12 33  1  0  0  0  0
 13 34  1  0  0  0  0
 13 35  1  0  0  0  0
 14 36  1  0  0  0  0
 14 37  1  0  0  0  0
 15 38  1  0  0  0  0
 15 39  1  0  0  0  0
 18 40  1  0  0  0  0
 18 41  1  0  0  0  0
 19 42  1  0  0  0  0
 20 43  1  0  0  0  0
 20 44  1  0  0  0  0
 21 45  1  0  0  0  0
 21 46  1  0  0  0  0
 24 47  1  0  0  0  0
 25 48  1  0  0  0  0
 26 49  1  0  0  0  0
 27 50  1  0  0  0  0
 28 51  1  0  0  0  0
M  END
>  <Molecule ChEMBL ID>
CHEMBL4742112

>  <Molecule Name>


>  <Molecule Max Phase>
None

>  <Molecular Weight>
425.33

>  <#RO5 Violations>
0

>  <AlogP>
4.61

>  <Compound Key>
18

>  <Smiles>
O=C(c1ccc(Cl)c(Cl)c1)N1CCC(F)(CNCCOc2ccccc2)CC1

>  <Standard Type>
Ki

>  <Standard Relation>
'='

>  <Standard Value>
0.01479

>  <Standard Units>
nM

>  <pChEMBL Value>
10.83

>  <Data Validity Comment>


>  <Comment>


>  <Uo Units>
UO_0000065

>  <Ligand Efficiency BEI>
25.46

>  <Ligand Efficiency LE>
0.53

>  <Ligand Efficiency LLE>
6.22

>  <Ligand Efficiency SEI>
26.05

>  <Potential Duplicate>
0

>  <Assay ChEMBL ID>
CHEMBL4707367

>  <Assay Description>
Displacement of [3H]8-OH-DPAT from recombinant human 5HT1A receptor stably expressed in CHO-K1 cell membranes measured after 60 mins by microbeta2 scintillation counting method

>  <Assay Type>
B

>  <BAO Format ID>
BAO_0000249

>  <BAO Label>
cell membrane format

>  <Assay Organism>
Homo sapiens

>  <Assay Tissue ChEMBL ID>
None

>  <Assay Tissue Name>
None

>  <Assay Cell Type>
CHO-K1

>  <Assay Subcellular Fraction>
Cell membrane

>  <Assay Parameters>


>  <Assay Variant Accession>


>  <Assay Variant Mutation>


>  <Target ChEMBL ID>
CHEMBL214

>  <Target Name>
Serotonin 1a (5-HT1a) receptor

>  <Target Organism>
Homo sapiens

>  <SmilesFragFp 3>


>  <Target Type>
SINGLE PROTEIN

>  <Document ChEMBL ID>
CHEMBL4706479

>  <Source ID>
1

>  <Source Description>
Scientific Literature

>  <Document Journal>
J Med Chem

>  <Document Year>
2019

>  <Cell ChEMBL ID>
None

>  <SmilesFragFp 4>


>  <Properties>
TIME = 1.0 hr

>  <Action Type>
AGONIST

>  <Row-ID>
941

>  <Neighbor Similarity FragFp 95%>
0.97674; 1; 0.97674; 0.97674; 0.97674; 0.97674; 0.98157; 0.97674; 1; 0.98611; 0.98157; 0.9907; 0.9907; 0.9907; 0.97674; 0.9907; 0.9907; 0.97674; 0.98611; 0.98157; 0.9907; 0.9907

>  <Neighbor Count>
22

>  <Neighbor>
5829; 5820; 5744; 5691; 5690; 5663; 5462; 5209; 5182; 5183; 5037; 5036; 5035; 5018; 4917; 4547; 4308; 3354; 2678; 2674; 2306; 2302

>  <Neighbor Analysis X>
0.3292511

>  <Neighbor Analysis Y>
-0.204842

>  <Row-ID 2>
941

>  <Neighbor Similarity FragFp 95% 2>
0.97674; 1; 0.97674; 0.97674; 0.97674; 0.97674; 0.98157; 0.97674; 0.98611; 1; 0.98157; 0.9907; 0.9907; 0.9907; 0.97674; 0.9907; 0.9907; 0.97674; 0.98611; 0.98157; 0.9907; 0.9907

>  <Neighbor Count 2>
22

>  <Neighbor 2>
5829; 5820; 5744; 5690; 5691; 5663; 5462; 5209; 5183; 5182; 5037; 5036; 5035; 5018; 4917; 4547; 4308; 3354; 2678; 2674; 2306; 2302

>  <Neighbor Analysis X 2>
0.41410795

>  <Neighbor Analysis Y 2>
-0.31412506

>  <SALI pChEMBL Value/FragFp>
66.65; 0; 178.45; 27.52; 86.43; 145.34; 143.76; 15.48; 52.56; 0; 16.275; 24.725; 54.825; 65.575; 190.06; 5.375; 15.05; 177.59; 174.24; 104.16; 105.35; 35.475

>  <MMFF94 Energy>


>  <MMFF94 Energy 2>
74.142

$$$$
CHEMBL4740097
Actelion Java MolfileCreator 1.0

 51 53  0  0  0  0  0  0  0  0999 V2000
    0.4011   -9.1759   -0.7221 Cl  0  0  0  0  0  0  0  0  0  0  0  0
   -0.0348   -7.5845   -0.2317 C   0  0  0  0  0  0  0  0  0  0  0  0
   -1.3719   -7.2518   -0.0062 C   0  0  0  0  0  0  0  0  0  0  0  0
    0.9604   -6.6242   -0.0603 C   0  0  0  0  0  0  0  0  0  0  0  0
   -2.3409   -8.1645   -0.1693 F   0  0  0  0  0  0  0  0  0  0  0  0
   -1.7293   -5.9664    0.3982 C   0  0  0  0  0  0  0  0  0  0  0  0
    0.5989   -5.3287    0.3229 C   0  0  0  0  0  0  0  0  0  0  0  0
   -0.7400   -4.9986    0.5722 C   0  0  0  0  0  0  0  0  0  0  0  0
    1.6619   -4.3283    0.5369 C   0  0  0  0  0  0  0  0  0  0  0  0
    2.4717   -4.5619    1.4296 O   0  0  0  0  0  0  0  0  0  0  0  0
    1.6851   -3.1892   -0.2588 N   0  0  0  0  0  0  0  0  0  0  0  0
    0.8829   -2.9614   -1.4606 C   0  0  0  0  0  0  0  0  0  0  0  0
    2.6621   -2.1444    0.0278 C   0  0  0  0  0  0  0  0  0  0  0  0
    0.1295   -1.6411   -1.3529 C   0  0  0  0  0  0  0  0  0  0  0  0
    1.9652   -0.7959    0.1790 C   0  0  0  0  0  0  0  0  0  0  0  0
    1.0971   -0.4894   -1.0480 C   0  0  0  0  0  0  0  0  0  0  0  0
    1.9435   -0.3729   -2.1232 F   0  0  0  0  0  0  0  0  0  0  0  0
    0.3601    0.8655   -0.9242 C   0  0  0  0  0  0  0  0  0  0  0  0
   -0.6131    0.9327    0.1732 N   0  0  0  0  0  0  0  0  0  0  0  0
   -1.4596    2.1339    0.1062 C   0  0  0  0  0  0  0  0  0  0  0  0
   -0.7391    3.4727    0.3743 C   0  0  0  0  0  0  0  0  0  0  0  0
   -1.6883    4.5602    0.4077 N   0  0  0  0  0  0  0  0  0  0  0  0
   -1.3931    5.8763    0.6252 C   0  0  0  0  0  0  0  0  0  0  0  0
   -2.4594    6.6997    0.6083 N   0  0  0  0  0  0  0  0  0  0  0  0
   -0.1090    6.3588    0.8489 C   0  0  0  0  0  0  0  0  0  0  0  0
   -2.2499    8.0193    0.8159 C   0  0  0  0  0  0  0  0  0  0  0  0
    0.0870    7.7233    1.0610 C   0  0  0  0  0  0  0  0  0  0  0  0
   -1.0061    8.5756    1.0448 C   0  0  0  0  0  0  0  0  0  0  0  0
    2.0071   -6.8736   -0.2154 H   0  0  0  0  0  0  0  0  0  0  0  0
   -2.7740   -5.7336    0.5822 H   0  0  0  0  0  0  0  0  0  0  0  0
   -1.0075   -3.9995    0.9083 H   0  0  0  0  0  0  0  0  0  0  0  0
    1.5744   -2.9387   -2.3117 H   0  0  0  0  0  0  0  0  0  0  0  0
    0.1857   -3.7796   -1.6507 H   0  0  0  0  0  0  0  0  0  0  0  0
    3.2257   -2.3677    0.9393 H   0  0  0  0  0  0  0  0  0  0  0  0
    3.3791   -2.1221   -0.8014 H   0  0  0  0  0  0  0  0  0  0  0  0
   -0.3915   -1.4534   -2.2987 H   0  0  0  0  0  0  0  0  0  0  0  0
   -0.6274   -1.7227   -0.5637 H   0  0  0  0  0  0  0  0  0  0  0  0
    2.7252   -0.0166    0.3063 H   0  0  0  0  0  0  0  0  0  0  0  0
    1.3506   -0.8161    1.0868 H   0  0  0  0  0  0  0  0  0  0  0  0
    1.1116    1.6562   -0.8108 H   0  0  0  0  0  0  0  0  0  0  0  0
   -0.1431    1.0582   -1.8805 H   0  0  0  0  0  0  0  0  0  0  0  0
   -0.1306    0.9142    1.0724 H   0  0  0  0  0  0  0  0  0  0  0  0
   -1.9767    2.1731   -0.8610 H   0  0  0  0  0  0  0  0  0  0  0  0
   -2.2513    2.0100    0.8561 H   0  0  0  0  0  0  0  0  0  0  0  0
   -0.2118    3.4099    1.3338 H   0  0  0  0  0  0  0  0  0  0  0  0
    0.0017    3.6558   -0.4119 H   0  0  0  0  0  0  0  0  0  0  0  0
   -2.6776    4.3971    0.2633 H   0  0  0  0  0  0  0  0  0  0  0  0
    0.7457    5.6936    0.8615 H   0  0  0  0  0  0  0  0  0  0  0  0
   -3.1435    8.6362    0.7917 H   0  0  0  0  0  0  0  0  0  0  0  0
    1.0856    8.1119    1.2366 H   0  0  0  0  0  0  0  0  0  0  0  0
   -0.8937    9.6414    1.2055 H   0  0  0  0  0  0  0  0  0  0  0  0
  1  2  1  0  0  0  0
  2  3  2  0  0  0  0
  2  4  1  0  0  0  0
  3  5  1  0  0  0  0
  3  6  1  0  0  0  0
  4  7  2  0  0  0  0
  6  8  2  0  0  0  0
  7  9  1  0  0  0  0
  9 10  2  0  0  0  0
  9 11  1  0  0  0  0
 11 12  1  0  0  0  0
 11 13  1  0  0  0  0
 12 14  1  0  0  0  0
 13 15  1  0  0  0  0
 14 16  1  0  0  0  0
 16 17  1  0  0  0  0
 16 18  1  0  0  0  0
 18 19  1  0  0  0  0
 19 20  1  0  0  0  0
 20 21  1  0  0  0  0
 21 22  1  0  0  0  0
 22 23  1  0  0  0  0
 23 24  2  0  0  0  0
 23 25  1  0  0  0  0
 24 26  1  0  0  0  0
 25 27  2  0  0  0  0
 26 28  2  0  0  0  0
  7  8  1  0  0  0  0
 15 16  1  0  0  0  0
 27 28  1  0  0  0  0
  4 29  1  0  0  0  0
  6 30  1  0  0  0  0
  8 31  1  0  0  0  0
 12 32  1  0  0  0  0
 12 33  1  0  0  0  0
 13 34  1  0  0  0  0
 13 35  1  0  0  0  0
 14 36  1  0  0  0  0
 14 37  1  0  0  0  0
 15 38  1  0  0  0  0
 15 39  1  0  0  0  0
 18 40  1  0  0  0  0
 18 41  1  0  0  0  0
 19 42  1  0  0  0  0
 20 43  1  0  0  0  0
 20 44  1  0  0  0  0
 21 45  1  0  0  0  0
 21 46  1  0  0  0  0
 22 47  1  0  0  0  0
 25 48  1  0  0  0  0
 26 49  1  0  0  0  0
 27 50  1  0  0  0  0
 28 51  1  0  0  0  0
M  END
>  <Molecule ChEMBL ID>
CHEMBL4740097

>  <Molecule Name>


>  <Molecule Max Phase>
None

>  <Molecular Weight>
408.88

>  <#RO5 Violations>
0

>  <AlogP>
3.52

>  <Compound Key>
13

>  <Smiles>
O=C(c1ccc(F)c(Cl)c1)N1CCC(F)(CNCCNc2ccccn2)CC1

>  <Standard Type>
Ki

>  <Standard Relation>
'='

>  <Standard Value>
1.259

>  <Standard Units>
nM

>  <pChEMBL Value>
8.90

>  <Data Validity Comment>


>  <Comment>


>  <Uo Units>
UO_0000065

>  <Ligand Efficiency BEI>
21.77

>  <Ligand Efficiency LE>
0.43

>  <Ligand Efficiency LLE>
5.38

>  <Ligand Efficiency SEI>
15.54

>  <Potential Duplicate>
0

>  <Assay ChEMBL ID>
CHEMBL4707367

>  <Assay Description>
Displacement of [3H]8-OH-DPAT from recombinant human 5HT1A receptor stably expressed in CHO-K1 cell membranes measured after 60 mins by microbeta2 scintillation counting method

>  <Assay Type>
B

>  <BAO Format ID>
BAO_0000249

>  <BAO Label>
cell membrane format

>  <Assay Organism>
Homo sapiens

>  <Assay Tissue ChEMBL ID>
None

>  <Assay Tissue Name>
None

>  <Assay Cell Type>
CHO-K1

>  <Assay Subcellular Fraction>
Cell membrane

>  <Assay Parameters>


>  <Assay Variant Accession>


>  <Assay Variant Mutation>


>  <Target ChEMBL ID>
CHEMBL214

>  <Target Name>
Serotonin 1a (5-HT1a) receptor

>  <Target Organism>
Homo sapiens

>  <SmilesFragFp 3>


>  <Target Type>
SINGLE PROTEIN

>  <Document ChEMBL ID>
CHEMBL4706479

>  <Source ID>
1

>  <Source Description>
Scientific Literature

>  <Document Journal>
J Med Chem

>  <Document Year>
2019

>  <Cell ChEMBL ID>
None

>  <SmilesFragFp 4>


>  <Properties>
TIME = 1.0 hr

>  <Action Type>
AGONIST

>  <Row-ID>
5661

>  <Neighbor Similarity FragFp 95%>
0.97619; 0.97129; 0.98086

>  <Neighbor Count>
3

>  <Neighbor>
4306; 5171; 5208

>  <Neighbor Analysis X>
0.677946

>  <Neighbor Analysis Y>
0.104796916

>  <Row-ID 2>
5661

>  <Neighbor Similarity FragFp 95% 2>
0.97619; 0.97129; 0.98086

>  <Neighbor Count 2>
3

>  <Neighbor 2>
4306; 5171; 5208

>  <Neighbor Analysis X 2>
-0.34363467

>  <Neighbor Analysis Y 2>
0.85579306

>  <SALI pChEMBL Value/FragFp>
7.14; 12.192; 16.198

>  <MMFF94 Energy>


>  <MMFF94 Energy 2>
33.447

$$$$
CHEMBL4753988
Actelion Java MolfileCreator 1.0

 49 51  0  0  0  0  0  0  0  0999 V2000
    6.8770   -5.0126    2.5848 Cl  0  0  0  0  0  0  0  0  0  0  0  0
    5.5725   -3.9106    2.8003 C   0  0  0  0  0  0  0  0  0  0  0  0
    5.6020   -2.9676    3.8294 C   0  0  0  0  0  0  0  0  0  0  0  0
    4.4808   -3.9644    1.9360 C   0  0  0  0  0  0  0  0  0  0  0  0
    6.6468   -2.9016    4.6673 F   0  0  0  0  0  0  0  0  0  0  0  0
    4.5452   -2.0767    4.0123 C   0  0  0  0  0  0  0  0  0  0  0  0
    3.4321   -3.0555    2.1070 C   0  0  0  0  0  0  0  0  0  0  0  0
    3.4486   -2.1223    3.1519 C   0  0  0  0  0  0  0  0  0  0  0  0
    2.2654   -3.1391    1.2095 C   0  0  0  0  0  0  0  0  0  0  0  0
    1.5789   -4.1535    1.2873 O   0  0  0  0  0  0  0  0  0  0  0  0
    2.0045   -2.0808    0.3472 N   0  0  0  0  0  0  0  0  0  0  0  0
    0.8156   -2.1324   -0.4965 C   0  0  0  0  0  0  0  0  0  0  0  0
    2.8938   -0.9532    0.0774 C   0  0  0  0  0  0  0  0  0  0  0  0
    0.0057   -0.8469   -0.3657 C   0  0  0  0  0  0  0  0  0  0  0  0
    2.1442    0.3614    0.2495 C   0  0  0  0  0  0  0  0  0  0  0  0
    0.8783    0.3885   -0.6197 C   0  0  0  0  0  0  0  0  0  0  0  0
    1.2879    0.3536   -1.9259 F   0  0  0  0  0  0  0  0  0  0  0  0
    0.1147    1.7183   -0.3882 C   0  0  0  0  0  0  0  0  0  0  0  0
   -1.1060    1.8633   -1.1932 N   0  0  0  0  0  0  0  0  0  0  0  0
   -1.7305    3.1780   -0.9931 C   0  0  0  0  0  0  0  0  0  0  0  0
   -3.0682    3.2651   -1.7433 C   0  0  0  0  0  0  0  0  0  0  0  0
   -3.9968    2.3683   -1.1220 O   0  0  0  0  0  0  0  0  0  0  0  0
   -5.2548    2.3175   -1.6494 C   0  0  0  0  0  0  0  0  0  0  0  0
   -6.1525    1.4821   -1.0044 C   0  0  0  0  0  0  0  0  0  0  0  0
   -5.7147    3.0119   -2.7569 C   0  0  0  0  0  0  0  0  0  0  0  0
   -7.4345    1.3233   -1.3999 N   0  0  0  0  0  0  0  0  0  0  0  0
   -7.0316    2.8256   -3.1380 C   0  0  0  0  0  0  0  0  0  0  0  0
   -7.8792    2.0065   -2.4826 N   0  0  0  0  0  0  0  0  0  0  0  0
    4.4360   -4.7043    1.1408 H   0  0  0  0  0  0  0  0  0  0  0  0
    4.5830   -1.3621    4.8291 H   0  0  0  0  0  0  0  0  0  0  0  0
    2.6097   -1.4468    3.2992 H   0  0  0  0  0  0  0  0  0  0  0  0
    1.1499   -2.2760   -1.5308 H   0  0  0  0  0  0  0  0  0  0  0  0
    0.1841   -2.9884   -0.2381 H   0  0  0  0  0  0  0  0  0  0  0  0
    3.7790   -0.9661    0.7159 H   0  0  0  0  0  0  0  0  0  0  0  0
    3.2512   -1.0599   -0.9540 H   0  0  0  0  0  0  0  0  0  0  0  0
   -0.8189   -0.8919   -1.0854 H   0  0  0  0  0  0  0  0  0  0  0  0
   -0.4287   -0.7917    0.6403 H   0  0  0  0  0  0  0  0  0  0  0  0
    2.8102    1.1854   -0.0314 H   0  0  0  0  0  0  0  0  0  0  0  0
    1.8758    0.4927    1.3052 H   0  0  0  0  0  0  0  0  0  0  0  0
   -0.1397    1.8079    0.6754 H   0  0  0  0  0  0  0  0  0  0  0  0
    0.7928    2.5428   -0.6417 H   0  0  0  0  0  0  0  0  0  0  0  0
   -1.7859    1.1416   -0.9479 H   0  0  0  0  0  0  0  0  0  0  0  0
   -1.9106    3.3430    0.0759 H   0  0  0  0  0  0  0  0  0  0  0  0
   -1.0623    3.9627   -1.3641 H   0  0  0  0  0  0  0  0  0  0  0  0
   -3.4438    4.2928   -1.6699 H   0  0  0  0  0  0  0  0  0  0  0  0
   -2.9212    2.9982   -2.7971 H   0  0  0  0  0  0  0  0  0  0  0  0
   -5.8650    0.9052   -0.1331 H   0  0  0  0  0  0  0  0  0  0  0  0
   -5.0931    3.6842   -3.3328 H   0  0  0  0  0  0  0  0  0  0  0  0
   -7.4547    3.3363   -3.9958 H   0  0  0  0  0  0  0  0  0  0  0  0
  1  2  1  0  0  0  0
  2  3  2  0  0  0  0
  2  4  1  0  0  0  0
  3  5  1  0  0  0  0
  3  6  1  0  0  0  0
  4  7  2  0  0  0  0
  6  8  2  0  0  0  0
  7  9  1  0  0  0  0
  9 10  2  0  0  0  0
  9 11  1  0  0  0  0
 11 12  1  0  0  0  0
 11 13  1  0  0  0  0
 12 14  1  0  0  0  0
 13 15  1  0  0  0  0
 14 16  1  0  0  0  0
 16 17  1  0  0  0  0
 16 18  1  0  0  0  0
 18 19  1  0  0  0  0
 19 20  1  0  0  0  0
 20 21  1  0  0  0  0
 21 22  1  0  0  0  0
 22 23  1  0  0  0  0
 23 24  2  0  0  0  0
 23 25  1  0  0  0  0
 24 26  1  0  0  0  0
 25 27  2  0  0  0  0
 26 28  2  0  0  0  0
  7  8  1  0  0  0  0
 15 16  1  0  0  0  0
 27 28  1  0  0  0  0
  4 29  1  0  0  0  0
  6 30  1  0  0  0  0
  8 31  1  0  0  0  0
 12 32  1  0  0  0  0
 12 33  1  0  0  0  0
 13 34  1  0  0  0  0
 13 35  1  0  0  0  0
 14 36  1  0  0  0  0
 14 37  1  0  0  0  0
 15 38  1  0  0  0  0
 15 39  1  0  0  0  0
 18 40  1  0  0  0  0
 18 41  1  0  0  0  0
 19 42  1  0  0  0  0
 20 43  1  0  0  0  0
 20 44  1  0  0  0  0
 21 45  1  0  0  0  0
 21 46  1  0  0  0  0
 24 47  1  0  0  0  0
 25 48  1  0  0  0  0
 27 49  1  0  0  0  0
M  END
>  <Molecule ChEMBL ID>
CHEMBL4753988

>  <Molecule Name>


>  <Molecule Max Phase>
None

>  <Molecular Weight>
410.85

>  <#RO5 Violations>
0

>  <AlogP>
2.88

>  <Compound Key>
25

>  <Smiles>
O=C(c1ccc(F)c(Cl)c1)N1CCC(F)(CNCCOc2ccnnc2)CC1

>  <Standard Type>
Ki

>  <Standard Relation>
'='

>  <Standard Value>
199.53

>  <Standard Units>
nM

>  <pChEMBL Value>
6.70

>  <Data Validity Comment>


>  <Comment>


>  <Uo Units>
UO_0000065

>  <Ligand Efficiency BEI>
16.31

>  <Ligand Efficiency LE>
0.33

>  <Ligand Efficiency LLE>
3.82

>  <Ligand Efficiency SEI>
9.95

>  <Potential Duplicate>
0

>  <Assay ChEMBL ID>
CHEMBL4707367

>  <Assay Description>
Displacement of [3H]8-OH-DPAT from recombinant human 5HT1A receptor stably expressed in CHO-K1 cell membranes measured after 60 mins by microbeta2 scintillation counting method

>  <Assay Type>
B

>  <BAO Format ID>
BAO_0000249

>  <BAO Label>
cell membrane format

>  <Assay Organism>
Homo sapiens

>  <Assay Tissue ChEMBL ID>
None

>  <Assay Tissue Name>
None

>  <Assay Cell Type>
CHO-K1

>  <Assay Subcellular Fraction>
Cell membrane

>  <Assay Parameters>


>  <Assay Variant Accession>


>  <Assay Variant Mutation>


>  <Target ChEMBL ID>
CHEMBL214

>  <Target Name>
Serotonin 1a (5-HT1a) receptor

>  <Target Organism>
Homo sapiens

>  <SmilesFragFp 3>


>  <Target Type>
SINGLE PROTEIN

>  <Document ChEMBL ID>
CHEMBL4706479

>  <Source ID>
1

>  <Source Description>
Scientific Literature

>  <Document Journal>
J Med Chem

>  <Document Year>
2019

>  <Cell ChEMBL ID>
None

>  <SmilesFragFp 4>


>  <Properties>
TIME = 1.0 hr

>  <Action Type>
AGONIST

>  <Row-ID>
3354

>  <Neighbor Similarity FragFp 95%>
1; 0.97674; 1; 0.98605; 1; 1; 1; 1; 0.97674; 1; 0.97674; 0.98605

>  <Neighbor Count>
12

>  <Neighbor>
5829; 5820; 5744; 5745; 5691; 5690; 5663; 5209; 5182; 4917; 941; 942

>  <Neighbor Analysis X>
0.3142987

>  <Neighbor Analysis Y>
-0.24714313

>  <Row-ID 2>
3354

>  <Neighbor Similarity FragFp 95% 2>
1; 0.97674; 0.98605; 1; 1; 1; 1; 1; 0.97674; 1; 0.97674; 0.98605

>  <Neighbor Count 2>
12

>  <Neighbor 2>
5829; 5820; 5745; 5744; 5690; 5691; 5663; 5209; 5182; 4917; 941; 942

>  <Neighbor Analysis X 2>
0.36857185

>  <Neighbor Analysis Y 2>
-0.32299343

>  <SALI pChEMBL Value/FragFp>
0; 150.93; 83.133; 0; 0; 0; 0; 0; 150.93; 0; 177.59; 123.27

>  <MMFF94 Energy>


>  <MMFF94 Energy 2>
81.16

$$$$
CHEMBL4777084
Actelion Java MolfileCreator 1.0

 49 51  0  0  0  0  0  0  0  0999 V2000
    3.3096   -2.9864    4.1990 Cl  0  0  0  0  0  0  0  0  0  0  0  0
    3.1297   -4.0102    2.8271 C   0  0  0  0  0  0  0  0  0  0  0  0
    4.1435   -4.8978    2.4632 C   0  0  0  0  0  0  0  0  0  0  0  0
    1.9565   -3.9453    2.0774 C   0  0  0  0  0  0  0  0  0  0  0  0
    5.2780   -4.9686    3.1747 F   0  0  0  0  0  0  0  0  0  0  0  0
    3.9963   -5.7325    1.3570 C   0  0  0  0  0  0  0  0  0  0  0  0
    1.8202   -4.7658    0.9518 C   0  0  0  0  0  0  0  0  0  0  0  0
    2.8260   -5.6736    0.5999 C   0  0  0  0  0  0  0  0  0  0  0  0
    0.5734   -4.7404    0.1625 C   0  0  0  0  0  0  0  0  0  0  0  0
   -0.0854   -5.7761    0.1326 O   0  0  0  0  0  0  0  0  0  0  0  0
    0.2065   -3.5652   -0.4837 N   0  0  0  0  0  0  0  0  0  0  0  0
   -1.0774   -3.5097   -1.1736 C   0  0  0  0  0  0  0  0  0  0  0  0
    1.0555   -2.3910   -0.6807 C   0  0  0  0  0  0  0  0  0  0  0  0
   -1.8627   -2.2784   -0.7370 C   0  0  0  0  0  0  0  0  0  0  0  0
    0.3360   -1.1295   -0.2204 C   0  0  0  0  0  0  0  0  0  0  0  0
   -1.0309   -1.0014   -0.9062 C   0  0  0  0  0  0  0  0  0  0  0  0
   -0.8115   -0.8256   -2.2489 F   0  0  0  0  0  0  0  0  0  0  0  0
   -1.8275    0.2255   -0.4050 C   0  0  0  0  0  0  0  0  0  0  0  0
   -1.1048    1.4888   -0.6289 N   0  0  0  0  0  0  0  0  0  0  0  0
   -1.9311    2.6410   -0.2568 C   0  0  0  0  0  0  0  0  0  0  0  0
   -1.1661    3.9599   -0.4324 C   0  0  0  0  0  0  0  0  0  0  0  0
   -2.0422    5.0349   -0.0796 O   0  0  0  0  0  0  0  0  0  0  0  0
   -1.5297    6.2906   -0.1708 C   0  0  0  0  0  0  0  0  0  0  0  0
   -0.2592    6.6673   -0.5534 C   0  0  0  0  0  0  0  0  0  0  0  0
   -2.3633    7.3423    0.1547 C   0  0  0  0  0  0  0  0  0  0  0  0
    0.1635    7.9506   -0.6165 N   0  0  0  0  0  0  0  0  0  0  0  0
   -2.0033    8.6439    0.1130 N   0  0  0  0  0  0  0  0  0  0  0  0
   -0.7423    8.8803   -0.2754 C   0  0  0  0  0  0  0  0  0  0  0  0
    1.1530   -3.2734    2.3656 H   0  0  0  0  0  0  0  0  0  0  0  0
    4.7902   -6.4269    1.0986 H   0  0  0  0  0  0  0  0  0  0  0  0
    2.6921   -6.3336   -0.2548 H   0  0  0  0  0  0  0  0  0  0  0  0
   -0.8750   -3.4803   -2.2508 H   0  0  0  0  0  0  0  0  0  0  0  0
   -1.6712   -4.4083   -0.9785 H   0  0  0  0  0  0  0  0  0  0  0  0
    2.0148   -2.4865   -0.1688 H   0  0  0  0  0  0  0  0  0  0  0  0
    1.2813   -2.3318   -1.7526 H   0  0  0  0  0  0  0  0  0  0  0  0
   -2.7785   -2.2142   -1.3359 H   0  0  0  0  0  0  0  0  0  0  0  0
   -2.1583   -2.3915    0.3137 H   0  0  0  0  0  0  0  0  0  0  0  0
    0.9691   -0.2676   -0.4582 H   0  0  0  0  0  0  0  0  0  0  0  0
    0.2042   -1.1592    0.8683 H   0  0  0  0  0  0  0  0  0  0  0  0
   -2.0462    0.1114    0.6635 H   0  0  0  0  0  0  0  0  0  0  0  0
   -2.7808    0.2631   -0.9469 H   0  0  0  0  0  0  0  0  0  0  0  0
   -0.8639    1.5423   -1.6225 H   0  0  0  0  0  0  0  0  0  0  0  0
   -2.8447    2.6731   -0.8635 H   0  0  0  0  0  0  0  0  0  0  0  0
   -2.2515    2.5599    0.7895 H   0  0  0  0  0  0  0  0  0  0  0  0
   -0.2867    3.9611    0.2236 H   0  0  0  0  0  0  0  0  0  0  0  0
   -0.8519    4.0646   -1.4783 H   0  0  0  0  0  0  0  0  0  0  0  0
    0.5011    5.9469   -0.8345 H   0  0  0  0  0  0  0  0  0  0  0  0
   -3.3867    7.1603    0.4709 H   0  0  0  0  0  0  0  0  0  0  0  0
   -0.4253    9.9166   -0.3178 H   0  0  0  0  0  0  0  0  0  0  0  0
  1  2  1  0  0  0  0
  2  3  2  0  0  0  0
  2  4  1  0  0  0  0
  3  5  1  0  0  0  0
  3  6  1  0  0  0  0
  4  7  2  0  0  0  0
  6  8  2  0  0  0  0
  7  9  1  0  0  0  0
  9 10  2  0  0  0  0
  9 11  1  0  0  0  0
 11 12  1  0  0  0  0
 11 13  1  0  0  0  0
 12 14  1  0  0  0  0
 13 15  1  0  0  0  0
 14 16  1  0  0  0  0
 16 17  1  0  0  0  0
 16 18  1  0  0  0  0
 18 19  1  0  0  0  0
 19 20  1  0  0  0  0
 20 21  1  0  0  0  0
 21 22  1  0  0  0  0
 22 23  1  0  0  0  0
 23 24  2  0  0  0  0
 23 25  1  0  0  0  0
 24 26  1  0  0  0  0
 25 27  2  0  0  0  0
 26 28  2  0  0  0  0
  7  8  1  0  0  0  0
 15 16  1  0  0  0  0
 27 28  1  0  0  0  0
  4 29  1  0  0  0  0
  6 30  1  0  0  0  0
  8 31  1  0  0  0  0
 12 32  1  0  0  0  0
 12 33  1  0  0  0  0
 13 34  1  0  0  0  0
 13 35  1  0  0  0  0
 14 36  1  0  0  0  0
 14 37  1  0  0  0  0
 15 38  1  0  0  0  0
 15 39  1  0  0  0  0
 18 40  1  0  0  0  0
 18 41  1  0  0  0  0
 19 42  1  0  0  0  0
 20 43  1  0  0  0  0
 20 44  1  0  0  0  0
 21 45  1  0  0  0  0
 21 46  1  0  0  0  0
 24 47  1  0  0  0  0
 25 48  1  0  0  0  0
 28 49  1  0  0  0  0
M  END
>  <Molecule ChEMBL ID>
CHEMBL4777084

>  <Molecule Name>


>  <Molecule Max Phase>
None

>  <Molecular Weight>
410.85

>  <#RO5 Violations>
0

>  <AlogP>
2.88

>  <Compound Key>
24

>  <Smiles>
O=C(c1ccc(F)c(Cl)c1)N1CCC(F)(CNCCOc2cncnc2)CC1

>  <Standard Type>
Ki

>  <Standard Relation>
'='

>  <Standard Value>
208.93

>  <Standard Units>
nM

>  <pChEMBL Value>
6.68

>  <Data Validity Comment>


>  <Comment>


>  <Uo Units>
UO_0000065

>  <Ligand Efficiency BEI>
16.26

>  <Ligand Efficiency LE>
0.33

>  <Ligand Efficiency LLE>
3.80

>  <Ligand Efficiency SEI>
9.92

>  <Potential Duplicate>
0

>  <Assay ChEMBL ID>
CHEMBL4707367

>  <Assay Description>
Displacement of [3H]8-OH-DPAT from recombinant human 5HT1A receptor stably expressed in CHO-K1 cell membranes measured after 60 mins by microbeta2 scintillation counting method

>  <Assay Type>
B

>  <BAO Format ID>
BAO_0000249

>  <BAO Label>
cell membrane format

>  <Assay Organism>
Homo sapiens

>  <Assay Tissue ChEMBL ID>
None

>  <Assay Tissue Name>
None

>  <Assay Cell Type>
CHO-K1

>  <Assay Subcellular Fraction>
Cell membrane

>  <Assay Parameters>


>  <Assay Variant Accession>


>  <Assay Variant Mutation>


>  <Target ChEMBL ID>
CHEMBL214

>  <Target Name>
Serotonin 1a (5-HT1a) receptor

>  <Target Organism>
Homo sapiens

>  <SmilesFragFp 3>


>  <Target Type>
SINGLE PROTEIN

>  <Document ChEMBL ID>
CHEMBL4706479

>  <Source ID>
1

>  <Source Description>
Scientific Literature

>  <Document Journal>
J Med Chem

>  <Document Year>
2019

>  <Cell ChEMBL ID>
None

>  <SmilesFragFp 4>


>  <Properties>
TIME = 1.0 hr

>  <Action Type>
AGONIST

>  <Row-ID>
5744

>  <Neighbor Similarity FragFp 95%>
1; 0.97674; 0.97674; 0.98605; 1; 1; 0.97674; 1; 1; 1; 1; 0.98605

>  <Neighbor Count>
12

>  <Neighbor>
5829; 5820; 941; 942; 3354; 4917; 5182; 5209; 5663; 5690; 5691; 5745

>  <Neighbor Analysis X>
0.33762854

>  <Neighbor Analysis Y>
-0.24124588

>  <Row-ID 2>
5744

>  <Neighbor Similarity FragFp 95% 2>
1; 0.97674; 0.97674; 0.98605; 0.98605; 1; 1; 0.97674; 1; 1; 1; 1

>  <Neighbor Count 2>
12

>  <Neighbor 2>
5829; 5820; 941; 942; 5745; 3354; 4917; 5182; 5209; 5663; 5690; 5691

>  <Neighbor Analysis X 2>
0.4246203

>  <Neighbor Analysis Y 2>
-0.3746208

>  <SALI pChEMBL Value/FragFp>
0; 151.79; 178.45; 124.7; 84.567; 0; 0; 151.79; 0; 0; 0; 0

>  <MMFF94 Energy>


>  <MMFF94 Energy 2>
72.662

$$$$
CHEMBL4745099
Actelion Java MolfileCreator 1.0

 49 51  0  0  0  0  0  0  0  0999 V2000
   -1.1290   -7.5993   -3.3092 Cl  0  0  0  0  0  0  0  0  0  0  0  0
   -0.7451   -6.9457   -1.7637 C   0  0  0  0  0  0  0  0  0  0  0  0
   -1.1136   -7.6163   -0.5962 C   0  0  0  0  0  0  0  0  0  0  0  0
   -0.0603   -5.7339   -1.6859 C   0  0  0  0  0  0  0  0  0  0  0  0
   -1.7753   -8.7811   -0.6566 F   0  0  0  0  0  0  0  0  0  0  0  0
   -0.7976   -7.0929    0.6560 C   0  0  0  0  0  0  0  0  0  0  0  0
    0.2338   -5.1952   -0.4277 C   0  0  0  0  0  0  0  0  0  0  0  0
   -0.1135   -5.8801    0.7433 C   0  0  0  0  0  0  0  0  0  0  0  0
    0.9903   -3.9314   -0.3167 C   0  0  0  0  0  0  0  0  0  0  0  0
    2.0602   -3.9774    0.2842 O   0  0  0  0  0  0  0  0  0  0  0  0
    0.4679   -2.7766   -0.8889 N   0  0  0  0  0  0  0  0  0  0  0  0
   -0.8959   -2.6034   -1.3863 C   0  0  0  0  0  0  0  0  0  0  0  0
    1.2987   -1.5772   -0.9461 C   0  0  0  0  0  0  0  0  0  0  0  0
   -1.6004   -1.4820   -0.6287 C   0  0  0  0  0  0  0  0  0  0  0  0
    0.6547   -0.4306   -0.1772 C   0  0  0  0  0  0  0  0  0  0  0  0
   -0.7791   -0.1881   -0.6633 C   0  0  0  0  0  0  0  0  0  0  0  0
   -0.7219    0.2235   -1.9710 F   0  0  0  0  0  0  0  0  0  0  0  0
   -1.4968    0.9215    0.1397 C   0  0  0  0  0  0  0  0  0  0  0  0
   -0.7861    2.2044    0.0769 N   0  0  0  0  0  0  0  0  0  0  0  0
   -1.5335    3.2740    0.7513 C   0  0  0  0  0  0  0  0  0  0  0  0
   -0.7962    4.6212    0.6881 C   0  0  0  0  0  0  0  0  0  0  0  0
    0.3531    4.5675    1.5320 O   0  0  0  0  0  0  0  0  0  0  0  0
    1.0907    5.7296    1.5178 C   0  0  0  0  0  0  0  0  0  0  0  0
    0.6755    6.7813    0.7887 N   0  0  0  0  0  0  0  0  0  0  0  0
    2.1939    5.7011    2.2796 N   0  0  0  0  0  0  0  0  0  0  0  0
    1.4556    7.8767    0.8395 C   0  0  0  0  0  0  0  0  0  0  0  0
    2.9343    6.8234    2.2917 C   0  0  0  0  0  0  0  0  0  0  0  0
    2.6097    7.9550    1.5822 C   0  0  0  0  0  0  0  0  0  0  0  0
    0.2504   -5.2155   -2.5891 H   0  0  0  0  0  0  0  0  0  0  0  0
   -1.0784   -7.6374    1.5527 H   0  0  0  0  0  0  0  0  0  0  0  0
    0.1567   -5.4719    1.7153 H   0  0  0  0  0  0  0  0  0  0  0  0
   -0.8323   -2.3711   -2.4556 H   0  0  0  0  0  0  0  0  0  0  0  0
   -1.4859   -3.5156   -1.2778 H   0  0  0  0  0  0  0  0  0  0  0  0
    2.3013   -1.7704   -0.5516 H   0  0  0  0  0  0  0  0  0  0  0  0
    1.4151   -1.3115   -2.0037 H   0  0  0  0  0  0  0  0  0  0  0  0
   -2.5844   -1.3162   -1.0825 H   0  0  0  0  0  0  0  0  0  0  0  0
   -1.7610   -1.7921    0.4117 H   0  0  0  0  0  0  0  0  0  0  0  0
    1.2684    0.4657   -0.3200 H   0  0  0  0  0  0  0  0  0  0  0  0
    0.6489   -0.6661    0.8944 H   0  0  0  0  0  0  0  0  0  0  0  0
   -1.6007    0.6096    1.1859 H   0  0  0  0  0  0  0  0  0  0  0  0
   -2.5027    1.0536   -0.2781 H   0  0  0  0  0  0  0  0  0  0  0  0
   -0.6197    2.4498   -0.9010 H   0  0  0  0  0  0  0  0  0  0  0  0
   -2.5135    3.3915    0.2745 H   0  0  0  0  0  0  0  0  0  0  0  0
   -1.6868    3.0005    1.8018 H   0  0  0  0  0  0  0  0  0  0  0  0
   -0.5122    4.8374   -0.3502 H   0  0  0  0  0  0  0  0  0  0  0  0
   -1.4806    5.4003    1.0479 H   0  0  0  0  0  0  0  0  0  0  0  0
    1.1131    8.7185    0.2448 H   0  0  0  0  0  0  0  0  0  0  0  0
    3.8260    6.7825    2.9104 H   0  0  0  0  0  0  0  0  0  0  0  0
    3.2209    8.8458    1.6074 H   0  0  0  0  0  0  0  0  0  0  0  0
  1  2  1  0  0  0  0
  2  3  2  0  0  0  0
  2  4  1  0  0  0  0
  3  5  1  0  0  0  0
  3  6  1  0  0  0  0
  4  7  2  0  0  0  0
  6  8  2  0  0  0  0
  7  9  1  0  0  0  0
  9 10  2  0  0  0  0
  9 11  1  0  0  0  0
 11 12  1  0  0  0  0
 11 13  1  0  0  0  0
 12 14  1  0  0  0  0
 13 15  1  0  0  0  0
 14 16  1  0  0  0  0
 16 17  1  0  0  0  0
 16 18  1  0  0  0  0
 18 19  1  0  0  0  0
 19 20  1  0  0  0  0
 20 21  1  0  0  0  0
 21 22  1  0  0  0  0
 22 23  1  0  0  0  0
 23 24  2  0  0  0  0
 23 25  1  0  0  0  0
 24 26  1  0  0  0  0
 25 27  2  0  0  0  0
 26 28  2  0  0  0  0
  7  8  1  0  0  0  0
 15 16  1  0  0  0  0
 27 28  1  0  0  0  0
  4 29  1  0  0  0  0
  6 30  1  0  0  0  0
  8 31  1  0  0  0  0
 12 32  1  0  0  0  0
 12 33  1  0  0  0  0
 13 34  1  0  0  0  0
 13 35  1  0  0  0  0
 14 36  1  0  0  0  0
 14 37  1  0  0  0  0
 15 38  1  0  0  0  0
 15 39  1  0  0  0  0
 18 40  1  0  0  0  0
 18 41  1  0  0  0  0
 19 42  1  0  0  0  0
 20 43  1  0  0  0  0
 20 44  1  0  0  0  0
 21 45  1  0  0  0  0
 21 46  1  0  0  0  0
 26 47  1  0  0  0  0
 27 48  1  0  0  0  0
 28 49  1  0  0  0  0
M  END
>  <Molecule ChEMBL ID>
CHEMBL4745099

>  <Molecule Name>


>  <Molecule Max Phase>
None

>  <Molecular Weight>
410.85

>  <#RO5 Violations>
0

>  <AlogP>
2.88

>  <Compound Key>
23

>  <Smiles>
O=C(c1ccc(F)c(Cl)c1)N1CCC(F)(CNCCOc2ncccn2)CC1

>  <Standard Type>
Ki

>  <Standard Relation>
'='

>  <Standard Value>
35.48

>  <Standard Units>
nM

>  <pChEMBL Value>
7.45

>  <Data Validity Comment>


>  <Comment>


>  <Uo Units>
UO_0000065

>  <Ligand Efficiency BEI>
18.13

>  <Ligand Efficiency LE>
0.36

>  <Ligand Efficiency LLE>
4.57

>  <Ligand Efficiency SEI>
11.06

>  <Potential Duplicate>
0

>  <Assay ChEMBL ID>
CHEMBL4707367

>  <Assay Description>
Displacement of [3H]8-OH-DPAT from recombinant human 5HT1A receptor stably expressed in CHO-K1 cell membranes measured after 60 mins by microbeta2 scintillation counting method

>  <Assay Type>
B

>  <BAO Format ID>
BAO_0000249

>  <BAO Label>
cell membrane format

>  <Assay Organism>
Homo sapiens

>  <Assay Tissue ChEMBL ID>
None

>  <Assay Tissue Name>
None

>  <Assay Cell Type>
CHO-K1

>  <Assay Subcellular Fraction>
Cell membrane

>  <Assay Parameters>


>  <Assay Variant Accession>


>  <Assay Variant Mutation>


>  <Target ChEMBL ID>
CHEMBL214

>  <Target Name>
Serotonin 1a (5-HT1a) receptor

>  <Target Organism>
Homo sapiens

>  <SmilesFragFp 3>


>  <Target Type>
SINGLE PROTEIN

>  <Document ChEMBL ID>
CHEMBL4706479

>  <Source ID>
1

>  <Source Description>
Scientific Literature

>  <Document Journal>
J Med Chem

>  <Document Year>
2019

>  <Cell ChEMBL ID>
None

>  <SmilesFragFp 4>


>  <Properties>
TIME = 1.0 hr

>  <Action Type>
AGONIST

>  <Row-ID>
5663

>  <Neighbor Similarity FragFp 95%>
1; 0.97674; 1; 0.98605; 1; 1; 0.97674; 0.98605; 1; 1; 0.97674; 1

>  <Neighbor Count>
12

>  <Neighbor>
5829; 5820; 5744; 5745; 5691; 5690; 941; 942; 3354; 4917; 5182; 5209

>  <Neighbor Analysis X>
0.2984047

>  <Neighbor Analysis Y>
-0.22728339

>  <Row-ID 2>
5663

>  <Neighbor Similarity FragFp 95% 2>
1; 0.97674; 0.98605; 1; 1; 1; 0.97674; 0.98605; 1; 1; 0.97674; 1

>  <Neighbor Count 2>
12

>  <Neighbor 2>
5829; 5820; 5745; 5744; 5690; 5691; 941; 942; 3354; 4917; 5182; 5209

>  <Neighbor Analysis X 2>
0.3846081

>  <Neighbor Analysis Y 2>
-0.36455408

>  <SALI pChEMBL Value/FragFp>
0; 118.68; 29.383; 0; 0; 0; 145.34; 69.517; 0; 0; 118.68; 0

>  <MMFF94 Energy>


>  <MMFF94 Energy 2>
16.307

$$$$
CHEMBL4753414
Actelion Java MolfileCreator 1.0

 49 51  0  0  0  0  0  0  0  0999 V2000
   -3.4745   -6.7148   -3.3936 Cl  0  0  0  0  0  0  0  0  0  0  0  0
   -2.0392   -6.3435   -2.5188 C   0  0  0  0  0  0  0  0  0  0  0  0
   -1.4380   -7.3003   -1.6996 C   0  0  0  0  0  0  0  0  0  0  0  0
   -1.4790   -5.0722   -2.6344 C   0  0  0  0  0  0  0  0  0  0  0  0
   -1.9682   -8.5259   -1.5769 F   0  0  0  0  0  0  0  0  0  0  0  0
   -0.2721   -7.0044   -0.9963 C   0  0  0  0  0  0  0  0  0  0  0  0
   -0.3226   -4.7665   -1.9070 C   0  0  0  0  0  0  0  0  0  0  0  0
    0.2947   -5.7343   -1.1051 C   0  0  0  0  0  0  0  0  0  0  0  0
    0.3124   -3.4393   -2.0395 C   0  0  0  0  0  0  0  0  0  0  0  0
    1.4744   -3.4172   -2.4358 O   0  0  0  0  0  0  0  0  0  0  0  0
   -0.4210   -2.3019   -1.7195 N   0  0  0  0  0  0  0  0  0  0  0  0
   -1.6896   -2.2718   -0.9935 C   0  0  0  0  0  0  0  0  0  0  0  0
    0.1359   -0.9895   -2.0335 C   0  0  0  0  0  0  0  0  0  0  0  0
   -1.5387   -1.4835    0.3043 C   0  0  0  0  0  0  0  0  0  0  0  0
    0.3392   -0.1688   -0.7664 C   0  0  0  0  0  0  0  0  0  0  0  0
   -0.9612   -0.0876    0.0422 C   0  0  0  0  0  0  0  0  0  0  0  0
   -1.8836    0.6020   -0.7035 F   0  0  0  0  0  0  0  0  0  0  0  0
   -0.7812    0.6749    1.3755 C   0  0  0  0  0  0  0  0  0  0  0  0
   -0.3008    2.0479    1.1730 N   0  0  0  0  0  0  0  0  0  0  0  0
   -0.2396    2.7925    2.4383 C   0  0  0  0  0  0  0  0  0  0  0  0
    0.2338    4.2406    2.2332 C   0  0  0  0  0  0  0  0  0  0  0  0
    1.6077    4.2343    1.8358 O   0  0  0  0  0  0  0  0  0  0  0  0
    2.1082    5.4945    1.5941 C   0  0  0  0  0  0  0  0  0  0  0  0
    1.3513    6.5902    1.8351 N   0  0  0  0  0  0  0  0  0  0  0  0
    3.4088    5.5854    1.1162 C   0  0  0  0  0  0  0  0  0  0  0  0
    1.9535    7.7732    1.5699 C   0  0  0  0  0  0  0  0  0  0  0  0
    4.0123    6.7715    0.8525 N   0  0  0  0  0  0  0  0  0  0  0  0
    3.2513    7.8628    1.0906 C   0  0  0  0  0  0  0  0  0  0  0  0
   -1.9274   -4.3282   -3.2874 H   0  0  0  0  0  0  0  0  0  0  0  0
    0.1901   -7.7672   -0.3769 H   0  0  0  0  0  0  0  0  0  0  0  0
    1.2165   -5.4987   -0.5767 H   0  0  0  0  0  0  0  0  0  0  0  0
   -2.4362   -1.8067   -1.6476 H   0  0  0  0  0  0  0  0  0  0  0  0
   -2.0402   -3.2759   -0.7476 H   0  0  0  0  0  0  0  0  0  0  0  0
    1.0843   -1.0801   -2.5725 H   0  0  0  0  0  0  0  0  0  0  0  0
   -0.5698   -0.4876   -2.7064 H   0  0  0  0  0  0  0  0  0  0  0  0
   -2.5223   -1.4010    0.7812 H   0  0  0  0  0  0  0  0  0  0  0  0
   -0.8814   -2.0345    0.9888 H   0  0  0  0  0  0  0  0  0  0  0  0
    0.6774    0.8321   -1.0565 H   0  0  0  0  0  0  0  0  0  0  0  0
    1.1281   -0.6263   -0.1566 H   0  0  0  0  0  0  0  0  0  0  0  0
   -1.7521    0.7114    1.8852 H   0  0  0  0  0  0  0  0  0  0  0  0
   -0.0789    0.1309    2.0184 H   0  0  0  0  0  0  0  0  0  0  0  0
   -0.9200    2.5248    0.5139 H   0  0  0  0  0  0  0  0  0  0  0  0
   -1.2324    2.8140    2.9025 H   0  0  0  0  0  0  0  0  0  0  0  0
    0.4535    2.2851    3.1195 H   0  0  0  0  0  0  0  0  0  0  0  0
   -0.3895    4.7285    1.4725 H   0  0  0  0  0  0  0  0  0  0  0  0
    0.1291    4.7728    3.1873 H   0  0  0  0  0  0  0  0  0  0  0  0
    4.0017    4.6972    0.9319 H   0  0  0  0  0  0  0  0  0  0  0  0
    1.3588    8.6605    1.7554 H   0  0  0  0  0  0  0  0  0  0  0  0
    3.7151    8.8208    0.8849 H   0  0  0  0  0  0  0  0  0  0  0  0
  1  2  1  0  0  0  0
  2  3  2  0  0  0  0
  2  4  1  0  0  0  0
  3  5  1  0  0  0  0
  3  6  1  0  0  0  0
  4  7  2  0  0  0  0
  6  8  2  0  0  0  0
  7  9  1  0  0  0  0
  9 10  2  0  0  0  0
  9 11  1  0  0  0  0
 11 12  1  0  0  0  0
 11 13  1  0  0  0  0
 12 14  1  0  0  0  0
 13 15  1  0  0  0  0
 14 16  1  0  0  0  0
 16 17  1  0  0  0  0
 16 18  1  0  0  0  0
 18 19  1  0  0  0  0
 19 20  1  0  0  0  0
 20 21  1  0  0  0  0
 21 22  1  0  0  0  0
 22 23  1  0  0  0  0
 23 24  2  0  0  0  0
 23 25  1  0  0  0  0
 24 26  1  0  0  0  0
 25 27  2  0  0  0  0
 26 28  2  0  0  0  0
  7  8  1  0  0  0  0
 15 16  1  0  0  0  0
 27 28  1  0  0  0  0
  4 29  1  0  0  0  0
  6 30  1  0  0  0  0
  8 31  1  0  0  0  0
 12 32  1  0  0  0  0
 12 33  1  0  0  0  0
 13 34  1  0  0  0  0
 13 35  1  0  0  0  0
 14 36  1  0  0  0  0
 14 37  1  0  0  0  0
 15 38  1  0  0  0  0
 15 39  1  0  0  0  0
 18 40  1  0  0  0  0
 18 41  1  0  0  0  0
 19 42  1  0  0  0  0
 20 43  1  0  0  0  0
 20 44  1  0  0  0  0
 21 45  1  0  0  0  0
 21 46  1  0  0  0  0
 25 47  1  0  0  0  0
 26 48  1  0  0  0  0
 28 49  1  0  0  0  0
M  END
>  <Molecule ChEMBL ID>
CHEMBL4753414

>  <Molecule Name>


>  <Molecule Max Phase>
None

>  <Molecular Weight>
410.85

>  <#RO5 Violations>
0

>  <AlogP>
2.88

>  <Compound Key>
22

>  <Smiles>
O=C(c1ccc(F)c(Cl)c1)N1CCC(F)(CNCCOc2cnccn2)CC1

>  <Standard Type>
Ki

>  <Standard Relation>
'='

>  <Standard Value>
0.5248

>  <Standard Units>
nM

>  <pChEMBL Value>
9.28

>  <Data Validity Comment>


>  <Comment>


>  <Uo Units>
UO_0000065

>  <Ligand Efficiency BEI>
22.59

>  <Ligand Efficiency LE>
0.45

>  <Ligand Efficiency LLE>
6.40

>  <Ligand Efficiency SEI>
13.78

>  <Potential Duplicate>
0

>  <Assay ChEMBL ID>
CHEMBL4707367

>  <Assay Description>
Displacement of [3H]8-OH-DPAT from recombinant human 5HT1A receptor stably expressed in CHO-K1 cell membranes measured after 60 mins by microbeta2 scintillation counting method

>  <Assay Type>
B

>  <BAO Format ID>
BAO_0000249

>  <BAO Label>
cell membrane format

>  <Assay Organism>
Homo sapiens

>  <Assay Tissue ChEMBL ID>
None

>  <Assay Tissue Name>
None

>  <Assay Cell Type>
CHO-K1

>  <Assay Subcellular Fraction>
Cell membrane

>  <Assay Parameters>


>  <Assay Variant Accession>


>  <Assay Variant Mutation>


>  <Target ChEMBL ID>
CHEMBL214

>  <Target Name>
Serotonin 1a (5-HT1a) receptor

>  <Target Organism>
Homo sapiens

>  <SmilesFragFp 3>


>  <Target Type>
SINGLE PROTEIN

>  <Document ChEMBL ID>
CHEMBL4706479

>  <Source ID>
1

>  <Source Description>
Scientific Literature

>  <Document Journal>
J Med Chem

>  <Document Year>
2019

>  <Cell ChEMBL ID>
None

>  <SmilesFragFp 4>


>  <Properties>
TIME = 1.0 hr

>  <Action Type>
AGONIST

>  <Row-ID>
5829

>  <Neighbor Similarity FragFp 95%>
0.97674; 0.98605; 1; 1; 0.97674; 1; 1; 1; 1; 1; 0.98605; 0.97674

>  <Neighbor Count>
12

>  <Neighbor>
941; 942; 3354; 4917; 5182; 5209; 5663; 5690; 5691; 5744; 5745; 5820

>  <Neighbor Analysis X>
0.27442172

>  <Neighbor Analysis Y>
-0.23108402

>  <Row-ID 2>
5829

>  <Neighbor Similarity FragFp 95% 2>
0.97674; 0.98605; 1; 1; 0.97674; 1; 1; 1; 1; 1; 0.98605; 0.97674

>  <Neighbor Count 2>
12

>  <Neighbor 2>
941; 942; 3354; 4917; 5182; 5209; 5663; 5690; 5691; 5744; 5745; 5820

>  <Neighbor Analysis X 2>
0.36587128

>  <Neighbor Analysis Y 2>
-0.34900284

>  <SALI pChEMBL Value/FragFp>
66.65; 61.633; 0; 0; 39.99; 0; 0; 0; 0; 0; 101.77; 39.99

>  <MMFF94 Energy>


>  <MMFF94 Energy 2>
101.83

$$$$
CHEMBL4759629
Actelion Java MolfileCreator 1.0

 50 52  0  0  0  0  0  0  0  0999 V2000
    1.3863   -8.1754   -2.1208 Cl  0  0  0  0  0  0  0  0  0  0  0  0
    0.9420   -6.7146   -1.3258 C   0  0  0  0  0  0  0  0  0  0  0  0
    1.4812   -6.3921   -0.0791 C   0  0  0  0  0  0  0  0  0  0  0  0
    0.0355   -5.8505   -1.9373 C   0  0  0  0  0  0  0  0  0  0  0  0
    2.3560   -7.2124    0.5210 F   0  0  0  0  0  0  0  0  0  0  0  0
    1.1186   -5.2140    0.5724 C   0  0  0  0  0  0  0  0  0  0  0  0
   -0.3101   -4.6579   -1.2937 C   0  0  0  0  0  0  0  0  0  0  0  0
    0.2119   -4.3430   -0.0320 C   0  0  0  0  0  0  0  0  0  0  0  0
   -1.2980   -3.7670   -1.9319 C   0  0  0  0  0  0  0  0  0  0  0  0
   -2.4276   -4.2196   -2.0961 O   0  0  0  0  0  0  0  0  0  0  0  0
   -0.9112   -2.4830   -2.2976 N   0  0  0  0  0  0  0  0  0  0  0  0
   -1.9108   -1.5688   -2.8383 C   0  0  0  0  0  0  0  0  0  0  0  0
    0.4583   -1.9713   -2.3224 C   0  0  0  0  0  0  0  0  0  0  0  0
   -1.8877   -0.2476   -2.0787 C   0  0  0  0  0  0  0  0  0  0  0  0
    0.5529   -0.6687   -1.5385 C   0  0  0  0  0  0  0  0  0  0  0  0
   -0.4757    0.3503   -2.0485 C   0  0  0  0  0  0  0  0  0  0  0  0
   -0.1381    0.6778   -3.3371 F   0  0  0  0  0  0  0  0  0  0  0  0
   -0.4674    1.6576   -1.2207 C   0  0  0  0  0  0  0  0  0  0  0  0
    0.8521    2.3105   -1.2281 N   0  0  0  0  0  0  0  0  0  0  0  0
    0.8274    3.6506   -0.6193 C   0  0  0  0  0  0  0  0  0  0  0  0
    0.5902    3.6405    0.8969 C   0  0  0  0  0  0  0  0  0  0  0  0
    0.6994    5.3427    1.5528 S   0  0  0  0  0  0  0  0  0  0  0  0
    0.3774    5.0462    3.2834 C   0  0  0  0  0  0  0  0  0  0  0  0
    0.0986    3.7864    3.6864 N   0  0  0  0  0  0  0  0  0  0  0  0
    0.4198    6.1228    4.1630 C   0  0  0  0  0  0  0  0  0  0  0  0
   -0.1411    3.5968    5.0028 C   0  0  0  0  0  0  0  0  0  0  0  0
    0.1680    5.8982    5.5144 C   0  0  0  0  0  0  0  0  0  0  0  0
   -0.1184    4.6098    5.9461 C   0  0  0  0  0  0  0  0  0  0  0  0
   -0.4055   -6.0969   -2.9000 H   0  0  0  0  0  0  0  0  0  0  0  0
    1.5395   -4.9901    1.5482 H   0  0  0  0  0  0  0  0  0  0  0  0
   -0.0930   -3.4326    0.4785 H   0  0  0  0  0  0  0  0  0  0  0  0
   -1.6793   -1.4121   -3.8985 H   0  0  0  0  0  0  0  0  0  0  0  0
   -2.9146   -2.0025   -2.7852 H   0  0  0  0  0  0  0  0  0  0  0  0
    1.1755   -2.6974   -1.9350 H   0  0  0  0  0  0  0  0  0  0  0  0
    0.7226   -1.8045   -3.3739 H   0  0  0  0  0  0  0  0  0  0  0  0
   -2.5820    0.4493   -2.5623 H   0  0  0  0  0  0  0  0  0  0  0  0
   -2.2418   -0.4137   -1.0533 H   0  0  0  0  0  0  0  0  0  0  0  0
    1.5703   -0.2769   -1.6466 H   0  0  0  0  0  0  0  0  0  0  0  0
    0.3813   -0.8684   -0.4734 H   0  0  0  0  0  0  0  0  0  0  0  0
   -1.2062    2.3437   -1.6530 H   0  0  0  0  0  0  0  0  0  0  0  0
   -0.7685    1.4311   -0.1920 H   0  0  0  0  0  0  0  0  0  0  0  0
    1.1476    2.4037   -2.2041 H   0  0  0  0  0  0  0  0  0  0  0  0
    1.8049    4.1060   -0.8218 H   0  0  0  0  0  0  0  0  0  0  0  0
    0.0796    4.2733   -1.1267 H   0  0  0  0  0  0  0  0  0  0  0  0
   -0.4039    3.2432    1.1240 H   0  0  0  0  0  0  0  0  0  0  0  0
    1.3435    3.0150    1.3880 H   0  0  0  0  0  0  0  0  0  0  0  0
    0.6455    7.1239    3.8099 H   0  0  0  0  0  0  0  0  0  0  0  0
   -0.3597    2.5721    5.2898 H   0  0  0  0  0  0  0  0  0  0  0  0
    0.1960    6.7227    6.2212 H   0  0  0  0  0  0  0  0  0  0  0  0
   -0.3187    4.3996    6.9908 H   0  0  0  0  0  0  0  0  0  0  0  0
  1  2  1  0  0  0  0
  2  3  2  0  0  0  0
  2  4  1  0  0  0  0
  3  5  1  0  0  0  0
  3  6  1  0  0  0  0
  4  7  2  0  0  0  0
  6  8  2  0  0  0  0
  7  9  1  0  0  0  0
  9 10  2  0  0  0  0
  9 11  1  0  0  0  0
 11 12  1  0  0  0  0
 11 13  1  0  0  0  0
 12 14  1  0  0  0  0
 13 15  1  0  0  0  0
 14 16  1  0  0  0  0
 16 17  1  0  0  0  0
 16 18  1  0  0  0  0
 18 19  1  0  0  0  0
 19 20  1  0  0  0  0
 20 21  1  0  0  0  0
 21 22  1  0  0  0  0
 22 23  1  0  0  0  0
 23 24  2  0  0  0  0
 23 25  1  0  0  0  0
 24 26  1  0  0  0  0
 25 27  2  0  0  0  0
 26 28  2  0  0  0  0
  7  8  1  0  0  0  0
 15 16  1  0  0  0  0
 27 28  1  0  0  0  0
  4 29  1  0  0  0  0
  6 30  1  0  0  0  0
  8 31  1  0  0  0  0
 12 32  1  0  0  0  0
 12 33  1  0  0  0  0
 13 34  1  0  0  0  0
 13 35  1  0  0  0  0
 14 36  1  0  0  0  0
 14 37  1  0  0  0  0
 15 38  1  0  0  0  0
 15 39  1  0  0  0  0
 18 40  1  0  0  0  0
 18 41  1  0  0  0  0
 19 42  1  0  0  0  0
 20 43  1  0  0  0  0
 20 44  1  0  0  0  0
 21 45  1  0  0  0  0
 21 46  1  0  0  0  0
 25 47  1  0  0  0  0
 26 48  1  0  0  0  0
 27 49  1  0  0  0  0
 28 50  1  0  0  0  0
M  END
>  <Molecule ChEMBL ID>
CHEMBL4759629

>  <Molecule Name>


>  <Molecule Max Phase>
None

>  <Molecular Weight>
425.93

>  <#RO5 Violations>
0

>  <AlogP>
4.20

>  <Compound Key>
15

>  <Smiles>
O=C(c1ccc(F)c(Cl)c1)N1CCC(F)(CNCCSc2ccccn2)CC1

>  <Standard Type>
Ki

>  <Standard Relation>
'='

>  <Standard Value>
0.6166

>  <Standard Units>
nM

>  <pChEMBL Value>
9.21

>  <Data Validity Comment>


>  <Comment>


>  <Uo Units>
UO_0000065

>  <Ligand Efficiency BEI>
21.62

>  <Ligand Efficiency LE>
0.45

>  <Ligand Efficiency LLE>
5.01

>  <Ligand Efficiency SEI>
20.36

>  <Potential Duplicate>
0

>  <Assay ChEMBL ID>
CHEMBL4707367

>  <Assay Description>
Displacement of [3H]8-OH-DPAT from recombinant human 5HT1A receptor stably expressed in CHO-K1 cell membranes measured after 60 mins by microbeta2 scintillation counting method

>  <Assay Type>
B

>  <BAO Format ID>
BAO_0000249

>  <BAO Label>
cell membrane format

>  <Assay Organism>
Homo sapiens

>  <Assay Tissue ChEMBL ID>
None

>  <Assay Tissue Name>
None

>  <Assay Cell Type>
CHO-K1

>  <Assay Subcellular Fraction>
Cell membrane

>  <Assay Parameters>


>  <Assay Variant Accession>


>  <Assay Variant Mutation>


>  <Target ChEMBL ID>
CHEMBL214

>  <Target Name>
Serotonin 1a (5-HT1a) receptor

>  <Target Organism>
Homo sapiens

>  <SmilesFragFp 3>


>  <Target Type>
SINGLE PROTEIN

>  <Document ChEMBL ID>
CHEMBL4706479

>  <Source ID>
1

>  <Source Description>
Scientific Literature

>  <Document Journal>
J Med Chem

>  <Document Year>
2019

>  <Cell ChEMBL ID>
None

>  <SmilesFragFp 4>


>  <Properties>
TIME = 1.0 hr

>  <Action Type>
AGONIST

>  <Row-ID>
5208

>  <Neighbor Similarity FragFp 95%>
0.96651; 0.98086; 0.99029

>  <Neighbor Count>
3

>  <Neighbor>
5886; 5661; 5171

>  <Neighbor Analysis X>
0.66981095

>  <Neighbor Analysis Y>
0.12825076

>  <Row-ID 2>
5208

>  <Neighbor Similarity FragFp 95% 2>
0.96651; 0.98086; 0.99029

>  <Neighbor Count 2>
3

>  <Neighbor 2>
5886; 5661; 5171

>  <Neighbor Analysis X 2>
-0.33728868

>  <Neighbor Analysis Y 2>
0.83449566

>  <SALI pChEMBL Value/FragFp>
18.511; 16.198; 4.12

>  <MMFF94 Energy>


>  <MMFF94 Energy 2>
47.649

$$$$
CHEMBL4789505
Actelion Java MolfileCreator 1.0

 52 54  0  0  0  0  0  0  0  0999 V2000
    2.4074   -3.2109    4.1756 Cl  0  0  0  0  0  0  0  0  0  0  0  0
    2.4558   -4.1351    2.7242 C   0  0  0  0  0  0  0  0  0  0  0  0
    3.5659   -4.9246    2.4197 C   0  0  0  0  0  0  0  0  0  0  0  0
    1.3712   -4.0885    1.8499 C   0  0  0  0  0  0  0  0  0  0  0  0
    4.6166   -4.9768    3.2513 F   0  0  0  0  0  0  0  0  0  0  0  0
    3.6035   -5.6793    1.2487 C   0  0  0  0  0  0  0  0  0  0  0  0
    1.4207   -4.8271    0.6622 C   0  0  0  0  0  0  0  0  0  0  0  0
    2.5230   -5.6381    0.3671 C   0  0  0  0  0  0  0  0  0  0  0  0
    0.2703   -4.8220   -0.2625 C   0  0  0  0  0  0  0  0  0  0  0  0
   -0.3049   -5.8926   -0.4380 O   0  0  0  0  0  0  0  0  0  0  0  0
   -0.1059   -3.6274   -0.8663 N   0  0  0  0  0  0  0  0  0  0  0  0
   -1.3053   -3.6017   -1.6957 C   0  0  0  0  0  0  0  0  0  0  0  0
    0.6724   -2.3892   -0.8822 C   0  0  0  0  0  0  0  0  0  0  0  0
   -2.2218   -2.4603   -1.2704 C   0  0  0  0  0  0  0  0  0  0  0  0
   -0.1836   -1.2156   -0.4231 C   0  0  0  0  0  0  0  0  0  0  0  0
   -1.4709   -1.1233   -1.2537 C   0  0  0  0  0  0  0  0  0  0  0  0
   -1.1162   -0.8336   -2.5468 F   0  0  0  0  0  0  0  0  0  0  0  0
   -2.4061    0.0080   -0.7668 C   0  0  0  0  0  0  0  0  0  0  0  0
   -1.7507    1.3230   -0.7939 N   0  0  0  0  0  0  0  0  0  0  0  0
   -2.6904    2.3995   -0.4329 C   0  0  0  0  0  0  0  0  0  0  0  0
   -2.0385    3.7967   -0.5479 C   0  0  0  0  0  0  0  0  0  0  0  0
   -0.7640    3.8052    0.1492 N   0  0  0  0  0  0  0  0  0  0  0  0
    0.0462    4.9103    0.2979 C   0  0  0  0  0  0  0  0  0  0  0  0
   -0.3105    6.1922   -0.1342 C   0  0  0  0  0  0  0  0  0  0  0  0
    1.2715    4.7688    0.9633 C   0  0  0  0  0  0  0  0  0  0  0  0
    0.5354    7.2892    0.0668 C   0  0  0  0  0  0  0  0  0  0  0  0
    2.1224    5.8594    1.1687 C   0  0  0  0  0  0  0  0  0  0  0  0
    1.7540    7.1221    0.7171 C   0  0  0  0  0  0  0  0  0  0  0  0
    0.4939   -3.4938    2.0888 H   0  0  0  0  0  0  0  0  0  0  0  0
    4.4698   -6.2987    1.0364 H   0  0  0  0  0  0  0  0  0  0  0  0
    2.5331   -6.2373   -0.5412 H   0  0  0  0  0  0  0  0  0  0  0  0
   -0.9866   -3.4773   -2.7374 H   0  0  0  0  0  0  0  0  0  0  0  0
   -1.8505   -4.5490   -1.6333 H   0  0  0  0  0  0  0  0  0  0  0  0
    1.5731   -2.4617   -0.2697 H   0  0  0  0  0  0  0  0  0  0  0  0
    1.0113   -2.2339   -1.9139 H   0  0  0  0  0  0  0  0  0  0  0  0
   -3.0672   -2.4094   -1.9662 H   0  0  0  0  0  0  0  0  0  0  0  0
   -2.6238   -2.6721   -0.2715 H   0  0  0  0  0  0  0  0  0  0  0  0
    0.4083   -0.2992   -0.5256 H   0  0  0  0  0  0  0  0  0  0  0  0
   -0.4339   -1.3369    0.6381 H   0  0  0  0  0  0  0  0  0  0  0  0
   -3.2845    0.0357   -1.4236 H   0  0  0  0  0  0  0  0  0  0  0  0
   -2.7483   -0.2098    0.2521 H   0  0  0  0  0  0  0  0  0  0  0  0
   -1.3837    1.4931   -1.7342 H   0  0  0  0  0  0  0  0  0  0  0  0
   -3.5773    2.3741   -1.0768 H   0  0  0  0  0  0  0  0  0  0  0  0
   -3.0185    2.2496    0.6030 H   0  0  0  0  0  0  0  0  0  0  0  0
   -1.8831    4.0392   -1.6059 H   0  0  0  0  0  0  0  0  0  0  0  0
   -2.7222    4.5373   -0.1174 H   0  0  0  0  0  0  0  0  0  0  0  0
   -0.3816    2.8850    0.3516 H   0  0  0  0  0  0  0  0  0  0  0  0
   -1.2554    6.3628   -0.6405 H   0  0  0  0  0  0  0  0  0  0  0  0
    1.5759    3.7930    1.3333 H   0  0  0  0  0  0  0  0  0  0  0  0
    0.2365    8.2733   -0.2837 H   0  0  0  0  0  0  0  0  0  0  0  0
    3.0680    5.7185    1.6847 H   0  0  0  0  0  0  0  0  0  0  0  0
    2.4108    7.9728    0.8755 H   0  0  0  0  0  0  0  0  0  0  0  0
  1  2  1  0  0  0  0
  2  3  2  0  0  0  0
  2  4  1  0  0  0  0
  3  5  1  0  0  0  0
  3  6  1  0  0  0  0
  4  7  2  0  0  0  0
  6  8  2  0  0  0  0
  7  9  1  0  0  0  0
  9 10  2  0  0  0  0
  9 11  1  0  0  0  0
 11 12  1  0  0  0  0
 11 13  1  0  0  0  0
 12 14  1  0  0  0  0
 13 15  1  0  0  0  0
 14 16  1  0  0  0  0
 16 17  1  0  0  0  0
 16 18  1  0  0  0  0
 18 19  1  0  0  0  0
 19 20  1  0  0  0  0
 20 21  1  0  0  0  0
 21 22  1  0  0  0  0
 22 23  1  0  0  0  0
 23 24  2  0  0  0  0
 23 25  1  0  0  0  0
 24 26  1  0  0  0  0
 25 27  2  0  0  0  0
 26 28  2  0  0  0  0
  7  8  1  0  0  0  0
 15 16  1  0  0  0  0
 27 28  1  0  0  0  0
  4 29  1  0  0  0  0
  6 30  1  0  0  0  0
  8 31  1  0  0  0  0
 12 32  1  0  0  0  0
 12 33  1  0  0  0  0
 13 34  1  0  0  0  0
 13 35  1  0  0  0  0
 14 36  1  0  0  0  0
 14 37  1  0  0  0  0
 15 38  1  0  0  0  0
 15 39  1  0  0  0  0
 18 40  1  0  0  0  0
 18 41  1  0  0  0  0
 19 42  1  0  0  0  0
 20 43  1  0  0  0  0
 20 44  1  0  0  0  0
 21 45  1  0  0  0  0
 21 46  1  0  0  0  0
 22 47  1  0  0  0  0
 24 48  1  0  0  0  0
 25 49  1  0  0  0  0
 26 50  1  0  0  0  0
 27 51  1  0  0  0  0
 28 52  1  0  0  0  0
M  END
>  <Molecule ChEMBL ID>
CHEMBL4789505

>  <Molecule Name>


>  <Molecule Max Phase>
None

>  <Molecular Weight>
407.89

>  <#RO5 Violations>
0

>  <AlogP>
4.13

>  <Compound Key>
12

>  <Smiles>
O=C(c1ccc(F)c(Cl)c1)N1CCC(F)(CNCCNc2ccccc2)CC1

>  <Standard Type>
Ki

>  <Standard Relation>
'='

>  <Standard Value>
1.862

>  <Standard Units>
nM

>  <pChEMBL Value>
8.73

>  <Data Validity Comment>


>  <Comment>


>  <Uo Units>
UO_0000065

>  <Ligand Efficiency BEI>
21.40

>  <Ligand Efficiency LE>
0.43

>  <Ligand Efficiency LLE>
4.60

>  <Ligand Efficiency SEI>
19.68

>  <Potential Duplicate>
0

>  <Assay ChEMBL ID>
CHEMBL4707367

>  <Assay Description>
Displacement of [3H]8-OH-DPAT from recombinant human 5HT1A receptor stably expressed in CHO-K1 cell membranes measured after 60 mins by microbeta2 scintillation counting method

>  <Assay Type>
B

>  <BAO Format ID>
BAO_0000249

>  <BAO Label>
cell membrane format

>  <Assay Organism>
Homo sapiens

>  <Assay Tissue ChEMBL ID>
None

>  <Assay Tissue Name>
None

>  <Assay Cell Type>
CHO-K1

>  <Assay Subcellular Fraction>
Cell membrane

>  <Assay Parameters>


>  <Assay Variant Accession>


>  <Assay Variant Mutation>


>  <Target ChEMBL ID>
CHEMBL214

>  <Target Name>
Serotonin 1a (5-HT1a) receptor

>  <Target Organism>
Homo sapiens

>  <SmilesFragFp 3>


>  <Target Type>
SINGLE PROTEIN

>  <Document ChEMBL ID>
CHEMBL4706479

>  <Source ID>
1

>  <Source Description>
Scientific Literature

>  <Document Journal>
J Med Chem

>  <Document Year>
2019

>  <Cell ChEMBL ID>
None

>  <SmilesFragFp 4>


>  <Properties>
TIME = 1.0 hr

>  <Action Type>
AGONIST

>  <Row-ID>
4306

>  <Neighbor Similarity FragFp 95%>
0.97619; 0.97596

>  <Neighbor Count>
2

>  <Neighbor>
5661; 5171

>  <Neighbor Analysis X>
0.70137656

>  <Neighbor Analysis Y>
0.10321545

>  <Row-ID 2>
4306

>  <Neighbor Similarity FragFp 95% 2>
0.97619; 0.97596

>  <Neighbor Count 2>
2

>  <Neighbor 2>
5661; 5171

>  <Neighbor Analysis X 2>
-0.36856616

>  <Neighbor Analysis Y 2>
0.8592347

>  <SALI pChEMBL Value/FragFp>
7.14; 21.632

>  <MMFF94 Energy>


>  <MMFF94 Energy 2>
66.893

$$$$
CHEMBL4786537
Actelion Java MolfileCreator 1.0

 52 54  0  0  0  0  0  0  0  0999 V2000
    5.2325   -1.6882    5.0712 Cl  0  0  0  0  0  0  0  0  0  0  0  0
    5.1540   -2.8296    3.7852 C   0  0  0  0  0  0  0  0  0  0  0  0
    6.2122   -3.7078    3.5465 C   0  0  0  0  0  0  0  0  0  0  0  0
    4.0184   -2.8693    2.9782 C   0  0  0  0  0  0  0  0  0  0  0  0
    7.3112   -3.6783    4.3142 F   0  0  0  0  0  0  0  0  0  0  0  0
    6.1471   -4.6365    2.5095 C   0  0  0  0  0  0  0  0  0  0  0  0
    3.9650   -3.7853    1.9218 C   0  0  0  0  0  0  0  0  0  0  0  0
    5.0150   -4.6827    1.6956 C   0  0  0  0  0  0  0  0  0  0  0  0
    2.7595   -3.8678    1.0751 C   0  0  0  0  0  0  0  0  0  0  0  0
    2.1200   -4.9145    1.1226 O   0  0  0  0  0  0  0  0  0  0  0  0
    2.4085   -2.7726    0.2943 N   0  0  0  0  0  0  0  0  0  0  0  0
    1.1680   -2.8177   -0.4717 C   0  0  0  0  0  0  0  0  0  0  0  0
    3.2408   -1.6001    0.0316 C   0  0  0  0  0  0  0  0  0  0  0  0
    0.3277   -1.5728   -0.2067 C   0  0  0  0  0  0  0  0  0  0  0  0
    2.4644   -0.3258    0.3358 C   0  0  0  0  0  0  0  0  0  0  0  0
    1.1396   -0.2927   -0.4412 C   0  0  0  0  0  0  0  0  0  0  0  0
    1.4570   -0.2350   -1.7717 F   0  0  0  0  0  0  0  0  0  0  0  0
    0.3515    0.9912   -0.0722 C   0  0  0  0  0  0  0  0  0  0  0  0
   -0.9247    1.1494   -0.7842 N   0  0  0  0  0  0  0  0  0  0  0  0
   -1.5811    2.4090   -0.4334 C   0  0  0  0  0  0  0  0  0  0  0  0
   -2.9042    2.5345   -1.1901 C   0  0  0  0  0  0  0  0  0  0  0  0
   -3.6172    3.8384   -0.8271 C   0  0  0  0  0  0  0  0  0  0  0  0
   -4.9068    3.9971   -1.5895 C   0  0  0  0  0  0  0  0  0  0  0  0
   -4.8598    4.7308   -2.7269 N   0  0  0  0  0  0  0  0  0  0  0  0
   -6.0763    3.3876   -1.1408 C   0  0  0  0  0  0  0  0  0  0  0  0
   -6.0066    4.8637   -3.4284 C   0  0  0  0  0  0  0  0  0  0  0  0
   -7.2428    3.5430   -1.8843 C   0  0  0  0  0  0  0  0  0  0  0  0
   -7.2109    4.2954   -3.0515 C   0  0  0  0  0  0  0  0  0  0  0  0
    3.1804   -2.2051    3.1693 H   0  0  0  0  0  0  0  0  0  0  0  0
    6.9745   -5.3211    2.3486 H   0  0  0  0  0  0  0  0  0  0  0  0
    4.9449   -5.4153    0.8942 H   0  0  0  0  0  0  0  0  0  0  0  0
    1.4357   -2.8864   -1.5327 H   0  0  0  0  0  0  0  0  0  0  0  0
    0.5837   -3.7101   -0.2259 H   0  0  0  0  0  0  0  0  0  0  0  0
    4.1712   -1.6200    0.6020 H   0  0  0  0  0  0  0  0  0  0  0  0
    3.5247   -1.6333   -1.0274 H   0  0  0  0  0  0  0  0  0  0  0  0
   -0.5426   -1.6051   -0.8711 H   0  0  0  0  0  0  0  0  0  0  0  0
   -0.0376   -1.5942    0.8276 H   0  0  0  0  0  0  0  0  0  0  0  0
    3.0824    0.5367    0.0609 H   0  0  0  0  0  0  0  0  0  0  0  0
    2.2674   -0.2666    1.4135 H   0  0  0  0  0  0  0  0  0  0  0  0
    0.9860    1.8538   -0.3110 H   0  0  0  0  0  0  0  0  0  0  0  0
    0.1659    1.0004    1.0092 H   0  0  0  0  0  0  0  0  0  0  0  0
   -1.5474    0.3684   -0.5857 H   0  0  0  0  0  0  0  0  0  0  0  0
   -1.7720    2.4464    0.6458 H   0  0  0  0  0  0  0  0  0  0  0  0
   -0.9330    3.2540   -0.6938 H   0  0  0  0  0  0  0  0  0  0  0  0
   -3.5515    1.6797   -0.9541 H   0  0  0  0  0  0  0  0  0  0  0  0
   -2.7186    2.5013   -2.2717 H   0  0  0  0  0  0  0  0  0  0  0  0
   -3.8226    3.8777    0.2497 H   0  0  0  0  0  0  0  0  0  0  0  0
   -2.9660    4.6929   -1.0498 H   0  0  0  0  0  0  0  0  0  0  0  0
   -6.0835    2.7993   -0.2294 H   0  0  0  0  0  0  0  0  0  0  0  0
   -5.9275    5.4592   -4.3333 H   0  0  0  0  0  0  0  0  0  0  0  0
   -8.1681    3.0785   -1.5561 H   0  0  0  0  0  0  0  0  0  0  0  0
   -8.1010    4.4346   -3.6540 H   0  0  0  0  0  0  0  0  0  0  0  0
  1  2  1  0  0  0  0
  2  3  2  0  0  0  0
  2  4  1  0  0  0  0
  3  5  1  0  0  0  0
  3  6  1  0  0  0  0
  4  7  2  0  0  0  0
  6  8  2  0  0  0  0
  7  9  1  0  0  0  0
  9 10  2  0  0  0  0
  9 11  1  0  0  0  0
 11 12  1  0  0  0  0
 11 13  1  0  0  0  0
 12 14  1  0  0  0  0
 13 15  1  0  0  0  0
 14 16  1  0  0  0  0
 16 17  1  0  0  0  0
 16 18  1  0  0  0  0
 18 19  1  0  0  0  0
 19 20  1  0  0  0  0
 20 21  1  0  0  0  0
 21 22  1  0  0  0  0
 22 23  1  0  0  0  0
 23 24  2  0  0  0  0
 23 25  1  0  0  0  0
 24 26  1  0  0  0  0
 25 27  2  0  0  0  0
 26 28  2  0  0  0  0
  7  8  1  0  0  0  0
 15 16  1  0  0  0  0
 27 28  1  0  0  0  0
  4 29  1  0  0  0  0
  6 30  1  0  0  0  0
  8 31  1  0  0  0  0
 12 32  1  0  0  0  0
 12 33  1  0  0  0  0
 13 34  1  0  0  0  0
 13 35  1  0  0  0  0
 14 36  1  0  0  0  0
 14 37  1  0  0  0  0
 15 38  1  0  0  0  0
 15 39  1  0  0  0  0
 18 40  1  0  0  0  0
 18 41  1  0  0  0  0
 19 42  1  0  0  0  0
 20 43  1  0  0  0  0
 20 44  1  0  0  0  0
 21 45  1  0  0  0  0
 21 46  1  0  0  0  0
 22 47  1  0  0  0  0
 22 48  1  0  0  0  0
 25 49  1  0  0  0  0
 26 50  1  0  0  0  0
 27 51  1  0  0  0  0
 28 52  1  0  0  0  0
M  END
>  <Molecule ChEMBL ID>
CHEMBL4786537

>  <Molecule Name>


>  <Molecule Max Phase>
None

>  <Molecular Weight>
407.89

>  <#RO5 Violations>
0

>  <AlogP>
4.04

>  <Compound Key>
11

>  <Smiles>
O=C(c1ccc(F)c(Cl)c1)N1CCC(F)(CNCCCc2ccccn2)CC1

>  <Standard Type>
Ki

>  <Standard Relation>
'='

>  <Standard Value>
2.57

>  <Standard Units>
nM

>  <pChEMBL Value>
8.59

>  <Data Validity Comment>


>  <Comment>


>  <Uo Units>
UO_0000065

>  <Ligand Efficiency BEI>
21.06

>  <Ligand Efficiency LE>
0.42

>  <Ligand Efficiency LLE>
4.55

>  <Ligand Efficiency SEI>
18.99

>  <Potential Duplicate>
0

>  <Assay ChEMBL ID>
CHEMBL4707367

>  <Assay Description>
Displacement of [3H]8-OH-DPAT from recombinant human 5HT1A receptor stably expressed in CHO-K1 cell membranes measured after 60 mins by microbeta2 scintillation counting method

>  <Assay Type>
B

>  <BAO Format ID>
BAO_0000249

>  <BAO Label>
cell membrane format

>  <Assay Organism>
Homo sapiens

>  <Assay Tissue ChEMBL ID>
None

>  <Assay Tissue Name>
None

>  <Assay Cell Type>
CHO-K1

>  <Assay Subcellular Fraction>
Cell membrane

>  <Assay Parameters>


>  <Assay Variant Accession>


>  <Assay Variant Mutation>


>  <Target ChEMBL ID>
CHEMBL214

>  <Target Name>
Serotonin 1a (5-HT1a) receptor

>  <Target Organism>
Homo sapiens

>  <SmilesFragFp 3>


>  <Target Type>
SINGLE PROTEIN

>  <Document ChEMBL ID>
CHEMBL4706479

>  <Source ID>
1

>  <Source Description>
Scientific Literature

>  <Document Journal>
J Med Chem

>  <Document Year>
2019

>  <Cell ChEMBL ID>
None

>  <SmilesFragFp 4>


>  <Properties>
TIME = 1.0 hr

>  <Action Type>
AGONIST

>  <Row-ID>
5886

>  <Neighbor Similarity FragFp 95%>
0.98068; 0.96651

>  <Neighbor Count>
2

>  <Neighbor>
3703; 5208

>  <Neighbor Analysis X>
0.65971774

>  <Neighbor Analysis Y>
0.15122777

>  <Row-ID 2>
5886

>  <Neighbor Similarity FragFp 95% 2>
0.98068; 0.96651

>  <Neighbor Count 2>
2

>  <Neighbor 2>
3703; 5208

>  <Neighbor Analysis X 2>
-0.3126655

>  <Neighbor Analysis Y 2>
0.8299968

>  <SALI pChEMBL Value/FragFp>
37.778; 18.511

>  <MMFF94 Energy>


>  <MMFF94 Energy 2>
50.713

$$$$
CHEMBL4742122
Actelion Java MolfileCreator 1.0

 50 52  0  0  0  0  0  0  0  0999 V2000
   -1.6922   -7.7534   -2.8215 Cl  0  0  0  0  0  0  0  0  0  0  0  0
   -1.2153   -7.0335   -1.3323 C   0  0  0  0  0  0  0  0  0  0  0  0
   -1.5790   -7.6107   -0.1146 C   0  0  0  0  0  0  0  0  0  0  0  0
   -0.4598   -5.8621   -1.3515 C   0  0  0  0  0  0  0  0  0  0  0  0
   -2.3082   -8.7355   -0.0817 F   0  0  0  0  0  0  0  0  0  0  0  0
   -1.1881   -7.0336    1.0921 C   0  0  0  0  0  0  0  0  0  0  0  0
   -0.0900   -5.2677   -0.1391 C   0  0  0  0  0  0  0  0  0  0  0  0
   -0.4331   -5.8605    1.0824 C   0  0  0  0  0  0  0  0  0  0  0  0
    0.7412   -4.0465   -0.1305 C   0  0  0  0  0  0  0  0  0  0  0  0
    1.8227   -4.1158    0.4468 O   0  0  0  0  0  0  0  0  0  0  0  0
    0.2712   -2.9021   -0.7657 N   0  0  0  0  0  0  0  0  0  0  0  0
   -1.0966   -2.6752   -1.2292 C   0  0  0  0  0  0  0  0  0  0  0  0
    1.1693   -1.7621   -0.9249 C   0  0  0  0  0  0  0  0  0  0  0  0
   -1.7053   -1.4708   -0.5170 C   0  0  0  0  0  0  0  0  0  0  0  0
    0.6244   -0.5357   -0.2041 C   0  0  0  0  0  0  0  0  0  0  0  0
   -0.8100   -0.2339   -0.6543 C   0  0  0  0  0  0  0  0  0  0  0  0
   -0.7773    0.1005   -1.9847 F   0  0  0  0  0  0  0  0  0  0  0  0
   -1.4295    0.9613    0.1066 C   0  0  0  0  0  0  0  0  0  0  0  0
   -0.6487    2.1938   -0.0605 N   0  0  0  0  0  0  0  0  0  0  0  0
   -1.3084    3.3446    0.5691 C   0  0  0  0  0  0  0  0  0  0  0  0
   -0.4962    4.6400    0.3980 C   0  0  0  0  0  0  0  0  0  0  0  0
    0.6846    4.5672    1.1994 O   0  0  0  0  0  0  0  0  0  0  0  0
    1.5377    5.6296    1.1476 C   0  0  0  0  0  0  0  0  0  0  0  0
    2.7042    5.5141    1.8971 C   0  0  0  0  0  0  0  0  0  0  0  0
    1.3554    6.8082    0.4303 C   0  0  0  0  0  0  0  0  0  0  0  0
    3.6676    6.4650    1.9755 N   0  0  0  0  0  0  0  0  0  0  0  0
    2.3291    7.8064    0.4878 C   0  0  0  0  0  0  0  0  0  0  0  0
    3.4554    7.5911    1.2655 C   0  0  0  0  0  0  0  0  0  0  0  0
   -0.1527   -5.4181   -2.2946 H   0  0  0  0  0  0  0  0  0  0  0  0
   -1.4667   -7.5065    2.0292 H   0  0  0  0  0  0  0  0  0  0  0  0
   -0.1047   -5.4125    2.0183 H   0  0  0  0  0  0  0  0  0  0  0  0
   -1.0574   -2.5091   -2.3118 H   0  0  0  0  0  0  0  0  0  0  0  0
   -1.7354   -3.5416   -1.0472 H   0  0  0  0  0  0  0  0  0  0  0  0
    2.1731   -1.9937   -0.5548 H   0  0  0  0  0  0  0  0  0  0  0  0
    1.2603   -1.5660   -2.0000 H   0  0  0  0  0  0  0  0  0  0  0  0
   -2.6933   -1.2708   -0.9477 H   0  0  0  0  0  0  0  0  0  0  0  0
   -1.8467   -1.7105    0.5446 H   0  0  0  0  0  0  0  0  0  0  0  0
    1.2843    0.3114   -0.4213 H   0  0  0  0  0  0  0  0  0  0  0  0
    0.6451   -0.7084    0.8792 H   0  0  0  0  0  0  0  0  0  0  0  0
   -1.5089    0.7178    1.1729 H   0  0  0  0  0  0  0  0  0  0  0  0
   -2.4420    1.1290   -0.2813 H   0  0  0  0  0  0  0  0  0  0  0  0
   -0.5043    2.3660   -1.0574 H   0  0  0  0  0  0  0  0  0  0  0  0
   -2.2966    3.4922    0.1184 H   0  0  0  0  0  0  0  0  0  0  0  0
   -1.4384    3.1454    1.6393 H   0  0  0  0  0  0  0  0  0  0  0  0
   -0.2388    4.7801   -0.6593 H   0  0  0  0  0  0  0  0  0  0  0  0
   -1.1150    5.4794    0.7383 H   0  0  0  0  0  0  0  0  0  0  0  0
    2.8995    4.6155    2.4760 H   0  0  0  0  0  0  0  0  0  0  0  0
    0.4750    6.9823   -0.1776 H   0  0  0  0  0  0  0  0  0  0  0  0
    2.2105    8.7331   -0.0627 H   0  0  0  0  0  0  0  0  0  0  0  0
    4.2382    8.3405    1.3394 H   0  0  0  0  0  0  0  0  0  0  0  0
  1  2  1  0  0  0  0
  2  3  2  0  0  0  0
  2  4  1  0  0  0  0
  3  5  1  0  0  0  0
  3  6  1  0  0  0  0
  4  7  2  0  0  0  0
  6  8  2  0  0  0  0
  7  9  1  0  0  0  0
  9 10  2  0  0  0  0
  9 11  1  0  0  0  0
 11 12  1  0  0  0  0
 11 13  1  0  0  0  0
 12 14  1  0  0  0  0
 13 15  1  0  0  0  0
 14 16  1  0  0  0  0
 16 17  1  0  0  0  0
 16 18  1  0  0  0  0
 18 19  1  0  0  0  0
 19 20  1  0  0  0  0
 20 21  1  0  0  0  0
 21 22  1  0  0  0  0
 22 23  1  0  0  0  0
 23 24  2  0  0  0  0
 23 25  1  0  0  0  0
 24 26  1  0  0  0  0
 25 27  2  0  0  0  0
 26 28  2  0  0  0  0
  7  8  1  0  0  0  0
 15 16  1  0  0  0  0
 27 28  1  0  0  0  0
  4 29  1  0  0  0  0
  6 30  1  0  0  0  0
  8 31  1  0  0  0  0
 12 32  1  0  0  0  0
 12 33  1  0  0  0  0
 13 34  1  0  0  0  0
 13 35  1  0  0  0  0
 14 36  1  0  0  0  0
 14 37  1  0  0  0  0
 15 38  1  0  0  0  0
 15 39  1  0  0  0  0
 18 40  1  0  0  0  0
 18 41  1  0  0  0  0
 19 42  1  0  0  0  0
 20 43  1  0  0  0  0
 20 44  1  0  0  0  0
 21 45  1  0  0  0  0
 21 46  1  0  0  0  0
 24 47  1  0  0  0  0
 25 48  1  0  0  0  0
 27 49  1  0  0  0  0
 28 50  1  0  0  0  0
M  END
>  <Molecule ChEMBL ID>
CHEMBL4742122

>  <Molecule Name>


>  <Molecule Max Phase>
None

>  <Molecular Weight>
409.86

>  <#RO5 Violations>
0

>  <AlogP>
3.49

>  <Compound Key>
20

>  <Smiles>
O=C(c1ccc(F)c(Cl)c1)N1CCC(F)(CNCCOc2cccnc2)CC1

>  <Standard Type>
Ki

>  <Standard Relation>
'='

>  <Standard Value>
1.514

>  <Standard Units>
nM

>  <pChEMBL Value>
8.82

>  <Data Validity Comment>


>  <Comment>


>  <Uo Units>
UO_0000065

>  <Ligand Efficiency BEI>
21.52

>  <Ligand Efficiency LE>
0.43

>  <Ligand Efficiency LLE>
5.33

>  <Ligand Efficiency SEI>
16.20

>  <Potential Duplicate>
0

>  <Assay ChEMBL ID>
CHEMBL4707367

>  <Assay Description>
Displacement of [3H]8-OH-DPAT from recombinant human 5HT1A receptor stably expressed in CHO-K1 cell membranes measured after 60 mins by microbeta2 scintillation counting method

>  <Assay Type>
B

>  <BAO Format ID>
BAO_0000249

>  <BAO Label>
cell membrane format

>  <Assay Organism>
Homo sapiens

>  <Assay Tissue ChEMBL ID>
None

>  <Assay Tissue Name>
None

>  <Assay Cell Type>
CHO-K1

>  <Assay Subcellular Fraction>
Cell membrane

>  <Assay Parameters>


>  <Assay Variant Accession>


>  <Assay Variant Mutation>


>  <Target ChEMBL ID>
CHEMBL214

>  <Target Name>
Serotonin 1a (5-HT1a) receptor

>  <Target Organism>
Homo sapiens

>  <SmilesFragFp 3>


>  <Target Type>
SINGLE PROTEIN

>  <Document ChEMBL ID>
CHEMBL4706479

>  <Source ID>
1

>  <Source Description>
Scientific Literature

>  <Document Journal>
J Med Chem

>  <Document Year>
2019

>  <Cell ChEMBL ID>
None

>  <SmilesFragFp 4>


>  <Properties>
TIME = 1.0 hr

>  <Action Type>
AGONIST

>  <Row-ID>
5691

>  <Neighbor Similarity FragFp 95%>
1; 0.97674; 1; 0.98605; 0.97674; 0.98605; 1; 1; 0.97674; 1; 1; 1

>  <Neighbor Count>
12

>  <Neighbor>
5829; 5820; 5744; 5745; 941; 942; 3354; 4917; 5182; 5209; 5663; 5690

>  <Neighbor Analysis X>
0.29245228

>  <Neighbor Analysis Y>
-0.25034428

>  <Row-ID 2>
5691

>  <Neighbor Similarity FragFp 95% 2>
1; 0.97674; 0.98605; 1; 0.97674; 0.98605; 1; 1; 0.97674; 1; 1; 1

>  <Neighbor Count 2>
12

>  <Neighbor 2>
5829; 5820; 5745; 5744; 941; 942; 3354; 4917; 5182; 5209; 5663; 5690

>  <Neighbor Analysis X 2>
0.38000363

>  <Neighbor Analysis Y 2>
-0.3856806

>  <SALI pChEMBL Value/FragFp>
0; 59.77; 68.8; 0; 86.43; 28.667; 0; 0; 59.77; 0; 0; 0

>  <MMFF94 Energy>


>  <MMFF94 Energy 2>
85.29

$$$$
CHEMBL4761382
Actelion Java MolfileCreator 1.0

 50 52  0  0  0  0  0  0  0  0999 V2000
   -1.3695   -7.6715   -2.7405 Cl  0  0  0  0  0  0  0  0  0  0  0  0
   -0.9689   -7.0495   -1.1861 C   0  0  0  0  0  0  0  0  0  0  0  0
   -1.4282   -7.6790   -0.0281 C   0  0  0  0  0  0  0  0  0  0  0  0
   -0.1783   -5.9051   -1.0917 C   0  0  0  0  0  0  0  0  0  0  0  0
   -2.1919   -8.7787   -0.1043 F   0  0  0  0  0  0  0  0  0  0  0  0
   -1.0989   -7.1817    1.2314 C   0  0  0  0  0  0  0  0  0  0  0  0
    0.1303   -5.3899    0.1731 C   0  0  0  0  0  0  0  0  0  0  0  0
   -0.3093   -6.0362    1.3352 C   0  0  0  0  0  0  0  0  0  0  0  0
    0.9967   -4.2001    0.3030 C   0  0  0  0  0  0  0  0  0  0  0  0
    2.0295   -4.3332    0.9539 O   0  0  0  0  0  0  0  0  0  0  0  0
    0.6118   -3.0113   -0.3075 N   0  0  0  0  0  0  0  0  0  0  0  0
   -0.7153   -2.7078   -0.8405 C   0  0  0  0  0  0  0  0  0  0  0  0
    1.5556   -1.8984   -0.3474 C   0  0  0  0  0  0  0  0  0  0  0  0
   -1.3271   -1.5261   -0.0931 C   0  0  0  0  0  0  0  0  0  0  0  0
    1.0098   -0.6979    0.4149 C   0  0  0  0  0  0  0  0  0  0  0  0
   -0.3840   -0.3168   -0.0988 C   0  0  0  0  0  0  0  0  0  0  0  0
   -0.2589    0.0956   -1.4010 F   0  0  0  0  0  0  0  0  0  0  0  0
   -1.0088    0.8507    0.7005 C   0  0  0  0  0  0  0  0  0  0  0  0
   -0.1764    2.0608    0.6688 N   0  0  0  0  0  0  0  0  0  0  0  0
   -0.8387    3.1907    1.3343 C   0  0  0  0  0  0  0  0  0  0  0  0
   -0.0184    4.4793    1.1710 C   0  0  0  0  0  0  0  0  0  0  0  0
   -0.0422    4.8610   -0.2088 O   0  0  0  0  0  0  0  0  0  0  0  0
    0.6426    5.9932   -0.5530 C   0  0  0  0  0  0  0  0  0  0  0  0
    1.3647    6.8098    0.3098 C   0  0  0  0  0  0  0  0  0  0  0  0
    0.5842    6.3225   -1.9044 C   0  0  0  0  0  0  0  0  0  0  0  0
    1.9970    7.9243   -0.2210 C   0  0  0  0  0  0  0  0  0  0  0  0
    1.2485    7.4561   -2.3395 C   0  0  0  0  0  0  0  0  0  0  0  0
    1.9546    8.2678   -1.5255 N   0  0  0  0  0  0  0  0  0  0  0  0
    0.2026   -5.4216   -1.9874 H   0  0  0  0  0  0  0  0  0  0  0  0
   -1.4520   -7.6950    2.1210 H   0  0  0  0  0  0  0  0  0  0  0  0
   -0.0288   -5.6512    2.3137 H   0  0  0  0  0  0  0  0  0  0  0  0
   -0.6018   -2.4789   -1.9064 H   0  0  0  0  0  0  0  0  0  0  0  0
   -1.3927   -3.5593   -0.7516 H   0  0  0  0  0  0  0  0  0  0  0  0
    2.5277   -2.1885    0.0642 H   0  0  0  0  0  0  0  0  0  0  0  0
    1.7159   -1.6431   -1.4019 H   0  0  0  0  0  0  0  0  0  0  0  0
   -2.2789   -1.2640   -0.5697 H   0  0  0  0  0  0  0  0  0  0  0  0
   -1.5427   -1.8237    0.9410 H   0  0  0  0  0  0  0  0  0  0  0  0
    1.7096    0.1357    0.2888 H   0  0  0  0  0  0  0  0  0  0  0  0
    0.9594   -0.9355    1.4848 H   0  0  0  0  0  0  0  0  0  0  0  0
   -1.9878    1.0819    0.2622 H   0  0  0  0  0  0  0  0  0  0  0  0
   -1.1661    0.5421    1.7411 H   0  0  0  0  0  0  0  0  0  0  0  0
    0.0018    2.3154   -0.3085 H   0  0  0  0  0  0  0  0  0  0  0  0
   -1.8334    3.3468    0.8997 H   0  0  0  0  0  0  0  0  0  0  0  0
   -0.9511    2.9713    2.4017 H   0  0  0  0  0  0  0  0  0  0  0  0
   -0.4813    5.2664    1.7786 H   0  0  0  0  0  0  0  0  0  0  0  0
    1.0122    4.3092    1.5067 H   0  0  0  0  0  0  0  0  0  0  0  0
    1.4556    6.6137    1.3698 H   0  0  0  0  0  0  0  0  0  0  0  0
    0.0315    5.7061   -2.6042 H   0  0  0  0  0  0  0  0  0  0  0  0
    2.5743    8.5924    0.4122 H   0  0  0  0  0  0  0  0  0  0  0  0
    1.2293    7.7491   -3.3851 H   0  0  0  0  0  0  0  0  0  0  0  0
  1  2  1  0  0  0  0
  2  3  2  0  0  0  0
  2  4  1  0  0  0  0
  3  5  1  0  0  0  0
  3  6  1  0  0  0  0
  4  7  2  0  0  0  0
  6  8  2  0  0  0  0
  7  9  1  0  0  0  0
  9 10  2  0  0  0  0
  9 11  1  0  0  0  0
 11 12  1  0  0  0  0
 11 13  1  0  0  0  0
 12 14  1  0  0  0  0
 13 15  1  0  0  0  0
 14 16  1  0  0  0  0
 16 17  1  0  0  0  0
 16 18  1  0  0  0  0
 18 19  1  0  0  0  0
 19 20  1  0  0  0  0
 20 21  1  0  0  0  0
 21 22  1  0  0  0  0
 22 23  1  0  0  0  0
 23 24  2  0  0  0  0
 23 25  1  0  0  0  0
 24 26  1  0  0  0  0
 25 27  2  0  0  0  0
 26 28  2  0  0  0  0
  7  8  1  0  0  0  0
 15 16  1  0  0  0  0
 27 28  1  0  0  0  0
  4 29  1  0  0  0  0
  6 30  1  0  0  0  0
  8 31  1  0  0  0  0
 12 32  1  0  0  0  0
 12 33  1  0  0  0  0
 13 34  1  0  0  0  0
 13 35  1  0  0  0  0
 14 36  1  0  0  0  0
 14 37  1  0  0  0  0
 15 38  1  0  0  0  0
 15 39  1  0  0  0  0
 18 40  1  0  0  0  0
 18 41  1  0  0  0  0
 19 42  1  0  0  0  0
 20 43  1  0  0  0  0
 20 44  1  0  0  0  0
 21 45  1  0  0  0  0
 21 46  1  0  0  0  0
 24 47  1  0  0  0  0
 25 48  1  0  0  0  0
 26 49  1  0  0  0  0
 27 50  1  0  0  0  0
M  END
>  <Molecule ChEMBL ID>
CHEMBL4761382

>  <Molecule Name>


>  <Molecule Max Phase>
None

>  <Molecular Weight>
409.86

>  <#RO5 Violations>
0

>  <AlogP>
3.49

>  <Compound Key>
21

>  <Smiles>
O=C(c1ccc(F)c(Cl)c1)N1CCC(F)(CNCCOc2ccncc2)CC1

>  <Standard Type>
Ki

>  <Standard Relation>
'='

>  <Standard Value>
389.05

>  <Standard Units>
nM

>  <pChEMBL Value>
6.41

>  <Data Validity Comment>


>  <Comment>


>  <Uo Units>
UO_0000065

>  <Ligand Efficiency BEI>
15.64

>  <Ligand Efficiency LE>
0.31

>  <Ligand Efficiency LLE>
2.92

>  <Ligand Efficiency SEI>
11.77

>  <Potential Duplicate>
0

>  <Assay ChEMBL ID>
CHEMBL4707367

>  <Assay Description>
Displacement of [3H]8-OH-DPAT from recombinant human 5HT1A receptor stably expressed in CHO-K1 cell membranes measured after 60 mins by microbeta2 scintillation counting method

>  <Assay Type>
B

>  <BAO Format ID>
BAO_0000249

>  <BAO Label>
cell membrane format

>  <Assay Organism>
Homo sapiens

>  <Assay Tissue ChEMBL ID>
None

>  <Assay Tissue Name>
None

>  <Assay Cell Type>
CHO-K1

>  <Assay Subcellular Fraction>
Cell membrane

>  <Assay Parameters>


>  <Assay Variant Accession>


>  <Assay Variant Mutation>


>  <Target ChEMBL ID>
CHEMBL214

>  <Target Name>
Serotonin 1a (5-HT1a) receptor

>  <Target Organism>
Homo sapiens

>  <SmilesFragFp 3>


>  <Target Type>
SINGLE PROTEIN

>  <Document ChEMBL ID>
CHEMBL4706479

>  <Source ID>
1

>  <Source Description>
Scientific Literature

>  <Document Journal>
J Med Chem

>  <Document Year>
2019

>  <Cell ChEMBL ID>
None

>  <SmilesFragFp 4>


>  <Properties>
TIME = 1.0 hr

>  <Action Type>
AGONIST

>  <Row-ID>
4917

>  <Neighbor Similarity FragFp 95%>
1; 0.97674; 1; 0.98605; 1; 1; 1; 1; 0.97674; 0.97674; 0.98605; 1

>  <Neighbor Count>
12

>  <Neighbor>
5829; 5820; 5744; 5745; 5691; 5690; 5663; 5209; 5182; 941; 942; 3354

>  <Neighbor Analysis X>
0.2700236

>  <Neighbor Analysis Y>
-0.2555214

>  <Row-ID 2>
4917

>  <Neighbor Similarity FragFp 95% 2>
1; 0.97674; 0.98605; 1; 1; 1; 1; 1; 0.97674; 0.97674; 0.98605; 1

>  <Neighbor Count 2>
12

>  <Neighbor 2>
5829; 5820; 5745; 5744; 5690; 5691; 5663; 5209; 5182; 941; 942; 3354

>  <Neighbor Analysis X 2>
0.38638684

>  <Neighbor Analysis Y 2>
-0.3396572

>  <SALI pChEMBL Value/FragFp>
0; 163.4; 103.92; 0; 0; 0; 0; 0; 163.4; 190.06; 144.05; 0

>  <MMFF94 Energy>


>  <MMFF94 Energy 2>
60.973

$$$$
CHEMBL4753328
Actelion Java MolfileCreator 1.0

 50 52  0  0  0  0  0  0  0  0999 V2000
   -3.4676   -7.6733   -2.1763 Cl  0  0  0  0  0  0  0  0  0  0  0  0
   -1.9383   -7.1469   -1.5870 C   0  0  0  0  0  0  0  0  0  0  0  0
   -1.2006   -7.9448   -0.7110 C   0  0  0  0  0  0  0  0  0  0  0  0
   -1.4393   -5.9100   -1.9928 C   0  0  0  0  0  0  0  0  0  0  0  0
   -1.6702   -9.1354   -0.3104 F   0  0  0  0  0  0  0  0  0  0  0  0
    0.0410   -7.5242   -0.2386 C   0  0  0  0  0  0  0  0  0  0  0  0
   -0.2041   -5.4757   -1.4973 C   0  0  0  0  0  0  0  0  0  0  0  0
    0.5475   -6.2872   -0.6385 C   0  0  0  0  0  0  0  0  0  0  0  0
    0.3649   -4.1862   -1.9396 C   0  0  0  0  0  0  0  0  0  0  0  0
    1.4598   -4.2238   -2.4943 O   0  0  0  0  0  0  0  0  0  0  0  0
   -0.3523   -3.0161   -1.7149 N   0  0  0  0  0  0  0  0  0  0  0  0
   -1.5090   -2.8714   -0.8323 C   0  0  0  0  0  0  0  0  0  0  0  0
    0.1151   -1.7724   -2.3200 C   0  0  0  0  0  0  0  0  0  0  0  0
   -1.2044   -1.8727    0.2806 C   0  0  0  0  0  0  0  0  0  0  0  0
    0.4664   -0.7468   -1.2499 C   0  0  0  0  0  0  0  0  0  0  0  0
   -0.7116   -0.5379   -0.2906 C   0  0  0  0  0  0  0  0  0  0  0  0
   -1.7486    0.0085   -1.0037 F   0  0  0  0  0  0  0  0  0  0  0  0
   -0.3722    0.4415    0.8570 C   0  0  0  0  0  0  0  0  0  0  0  0
    0.0292    1.7663    0.3623 N   0  0  0  0  0  0  0  0  0  0  0  0
    0.2309    2.7091    1.4669 C   0  0  0  0  0  0  0  0  0  0  0  0
    0.6478    4.0984    0.9660 C   0  0  0  0  0  0  0  0  0  0  0  0
    0.8016    4.9487    2.1077 O   0  0  0  0  0  0  0  0  0  0  0  0
    1.1714    6.2377    1.7785 C   0  0  0  0  0  0  0  0  0  0  0  0
    1.3108    6.5916    0.4834 N   0  0  0  0  0  0  0  0  0  0  0  0
    1.3737    7.1065    2.8398 C   0  0  0  0  0  0  0  0  0  0  0  0
    1.6727    7.8704    0.2418 C   0  0  0  0  0  0  0  0  0  0  0  0
    1.7450    8.4179    2.5594 C   0  0  0  0  0  0  0  0  0  0  0  0
    1.8988    8.8108    1.2346 C   0  0  0  0  0  0  0  0  0  0  0  0
   -1.9963   -5.2920   -2.6921 H   0  0  0  0  0  0  0  0  0  0  0  0
    0.6074   -8.1662    0.4294 H   0  0  0  0  0  0  0  0  0  0  0  0
    1.5252   -5.9578   -0.2922 H   0  0  0  0  0  0  0  0  0  0  0  0
   -2.3527   -2.5295   -1.4429 H   0  0  0  0  0  0  0  0  0  0  0  0
   -1.7913   -3.8215   -0.3746 H   0  0  0  0  0  0  0  0  0  0  0  0
    0.9821   -1.9470   -2.9650 H   0  0  0  0  0  0  0  0  0  0  0  0
   -0.6921   -1.3972   -2.9607 H   0  0  0  0  0  0  0  0  0  0  0  0
   -2.1148   -1.7169    0.8711 H   0  0  0  0  0  0  0  0  0  0  0  0
   -0.4422   -2.2948    0.9479 H   0  0  0  0  0  0  0  0  0  0  0  0
    0.7304    0.1926   -1.7482 H   0  0  0  0  0  0  0  0  0  0  0  0
    1.3456   -1.0886   -0.6898 H   0  0  0  0  0  0  0  0  0  0  0  0
   -1.2630    0.5545    1.4877 H   0  0  0  0  0  0  0  0  0  0  0  0
    0.4310    0.0209    1.4740 H   0  0  0  0  0  0  0  0  0  0  0  0
   -0.7019    2.1170   -0.2620 H   0  0  0  0  0  0  0  0  0  0  0  0
   -0.6868    2.8081    2.0606 H   0  0  0  0  0  0  0  0  0  0  0  0
    1.0052    2.3347    2.1481 H   0  0  0  0  0  0  0  0  0  0  0  0
    1.5973    4.0205    0.4210 H   0  0  0  0  0  0  0  0  0  0  0  0
   -0.1330    4.4938    0.3034 H   0  0  0  0  0  0  0  0  0  0  0  0
    1.2453    6.7672    3.8611 H   0  0  0  0  0  0  0  0  0  0  0  0
    1.7803    8.1296   -0.8077 H   0  0  0  0  0  0  0  0  0  0  0  0
    1.9127    9.1248    3.3667 H   0  0  0  0  0  0  0  0  0  0  0  0
    2.1879    9.8246    0.9809 H   0  0  0  0  0  0  0  0  0  0  0  0
  1  2  1  0  0  0  0
  2  3  2  0  0  0  0
  2  4  1  0  0  0  0
  3  5  1  0  0  0  0
  3  6  1  0  0  0  0
  4  7  2  0  0  0  0
  6  8  2  0  0  0  0
  7  9  1  0  0  0  0
  9 10  2  0  0  0  0
  9 11  1  0  0  0  0
 11 12  1  0  0  0  0
 11 13  1  0  0  0  0
 12 14  1  0  0  0  0
 13 15  1  0  0  0  0
 14 16  1  0  0  0  0
 16 17  1  0  0  0  0
 16 18  1  0  0  0  0
 18 19  1  0  0  0  0
 19 20  1  0  0  0  0
 20 21  1  0  0  0  0
 21 22  1  0  0  0  0
 22 23  1  0  0  0  0
 23 24  2  0  0  0  0
 23 25  1  0  0  0  0
 24 26  1  0  0  0  0
 25 27  2  0  0  0  0
 26 28  2  0  0  0  0
  7  8  1  0  0  0  0
 15 16  1  0  0  0  0
 27 28  1  0  0  0  0
  4 29  1  0  0  0  0
  6 30  1  0  0  0  0
  8 31  1  0  0  0  0
 12 32  1  0  0  0  0
 12 33  1  0  0  0  0
 13 34  1  0  0  0  0
 13 35  1  0  0  0  0
 14 36  1  0  0  0  0
 14 37  1  0  0  0  0
 15 38  1  0  0  0  0
 15 39  1  0  0  0  0
 18 40  1  0  0  0  0
 18 41  1  0  0  0  0
 19 42  1  0  0  0  0
 20 43  1  0  0  0  0
 20 44  1  0  0  0  0
 21 45  1  0  0  0  0
 21 46  1  0  0  0  0
 25 47  1  0  0  0  0
 26 48  1  0  0  0  0
 27 49  1  0  0  0  0
 28 50  1  0  0  0  0
M  END
>  <Molecule ChEMBL ID>
CHEMBL4753328

>  <Molecule Name>


>  <Molecule Max Phase>
None

>  <Molecular Weight>
409.86

>  <#RO5 Violations>
0

>  <AlogP>
3.49

>  <Compound Key>
17

>  <Smiles>
O=C(c1ccc(F)c(Cl)c1)N1CCC(F)(CNCCOc2ccccn2)CC1

>  <Standard Type>
Ki

>  <Standard Relation>
'='

>  <Standard Value>
0.06457

>  <Standard Units>
nM

>  <pChEMBL Value>
10.19

>  <Data Validity Comment>


>  <Comment>


>  <Uo Units>
UO_0000065

>  <Ligand Efficiency BEI>
24.86

>  <Ligand Efficiency LE>
0.50

>  <Ligand Efficiency LLE>
6.70

>  <Ligand Efficiency SEI>
18.71

>  <Potential Duplicate>
0

>  <Assay ChEMBL ID>
CHEMBL4707367

>  <Assay Description>
Displacement of [3H]8-OH-DPAT from recombinant human 5HT1A receptor stably expressed in CHO-K1 cell membranes measured after 60 mins by microbeta2 scintillation counting method

>  <Assay Type>
B

>  <BAO Format ID>
BAO_0000249

>  <BAO Label>
cell membrane format

>  <Assay Organism>
Homo sapiens

>  <Assay Tissue ChEMBL ID>
None

>  <Assay Tissue Name>
None

>  <Assay Cell Type>
CHO-K1

>  <Assay Subcellular Fraction>
Cell membrane

>  <Assay Parameters>


>  <Assay Variant Accession>


>  <Assay Variant Mutation>


>  <Target ChEMBL ID>
CHEMBL214

>  <Target Name>
Serotonin 1a (5-HT1a) receptor

>  <Target Organism>
Homo sapiens

>  <SmilesFragFp 3>


>  <Target Type>
SINGLE PROTEIN

>  <Document ChEMBL ID>
CHEMBL4706479

>  <Source ID>
1

>  <Source Description>
Scientific Literature

>  <Document Journal>
J Med Chem

>  <Document Year>
2019

>  <Cell ChEMBL ID>
None

>  <SmilesFragFp 4>


>  <Properties>
TIME = 1.0 hr

>  <Action Type>
AGONIST

>  <Row-ID>
5690

>  <Neighbor Similarity FragFp 95%>
1; 0.97674; 1; 0.98605; 0.97674; 0.98605; 1; 1; 1; 0.97674; 1; 1

>  <Neighbor Count>
12

>  <Neighbor>
5829; 5820; 5744; 5745; 941; 942; 3354; 4917; 5691; 5182; 5209; 5663

>  <Neighbor Analysis X>
0.28179482

>  <Neighbor Analysis Y>
-0.20848832

>  <Row-ID 2>
5690

>  <Neighbor Similarity FragFp 95% 2>
1; 0.97674; 0.98605; 1; 0.97674; 0.98605; 1; 1; 0.97674; 1; 1; 1

>  <Neighbor Count 2>
12

>  <Neighbor 2>
5829; 5820; 5745; 5744; 941; 942; 3354; 4917; 5182; 5209; 5663; 5691

>  <Neighbor Analysis X 2>
0.4054005

>  <Neighbor Analysis Y 2>
-0.35772848

>  <SALI pChEMBL Value/FragFp>
0; 0.86002; 166.98; 0; 27.52; 126.85; 0; 0; 0.86002; 0; 0; 0

>  <MMFF94 Energy>


>  <MMFF94 Energy 2>
49.939

$$$$
CHEMBL4754941
Actelion Java MolfileCreator 1.0

 50 52  0  0  0  0  0  0  0  0999 V2000
    6.4978    0.2431    3.0013 Cl  0  0  0  0  0  0  0  0  0  0  0  0
    5.7470   -1.2922    3.2558 C   0  0  0  0  0  0  0  0  0  0  0  0
    6.4734   -2.4316    3.6294 C   0  0  0  0  0  0  0  0  0  0  0  0
    4.3642   -1.3725    3.0739 C   0  0  0  0  0  0  0  0  0  0  0  0
    8.1843   -2.4008    3.8661 Cl  0  0  0  0  0  0  0  0  0  0  0  0
    5.8112   -3.6487    3.8279 C   0  0  0  0  0  0  0  0  0  0  0  0
    3.7160   -2.5988    3.2492 C   0  0  0  0  0  0  0  0  0  0  0  0
    4.4296   -3.7327    3.6452 C   0  0  0  0  0  0  0  0  0  0  0  0
    2.2517   -2.6926    3.0928 C   0  0  0  0  0  0  0  0  0  0  0  0
    1.6055   -2.9867    4.0946 O   0  0  0  0  0  0  0  0  0  0  0  0
    1.6887   -2.4341    1.8483 N   0  0  0  0  0  0  0  0  0  0  0  0
    0.2358   -2.4324    1.7155 C   0  0  0  0  0  0  0  0  0  0  0  0
    2.4134   -2.3093    0.5850 C   0  0  0  0  0  0  0  0  0  0  0  0
   -0.2393   -1.1609    1.0197 C   0  0  0  0  0  0  0  0  0  0  0  0
    2.0155   -1.0221   -0.1251 C   0  0  0  0  0  0  0  0  0  0  0  0
    0.4925   -0.9479   -0.3114 C   0  0  0  0  0  0  0  0  0  0  0  0
    0.1411   -1.9703   -1.1517 F   0  0  0  0  0  0  0  0  0  0  0  0
    0.1155    0.3932   -0.9934 C   0  0  0  0  0  0  0  0  0  0  0  0
   -1.3217    0.5605   -1.2558 N   0  0  0  0  0  0  0  0  0  0  0  0
   -1.5903    1.8208   -1.9574 C   0  0  0  0  0  0  0  0  0  0  0  0
   -3.0872    2.0173   -2.2329 C   0  0  0  0  0  0  0  0  0  0  0  0
   -3.2512    3.2805   -2.8866 O   0  0  0  0  0  0  0  0  0  0  0  0
   -4.5690    3.5742   -3.1764 C   0  0  0  0  0  0  0  0  0  0  0  0
   -5.5506    2.7327   -2.7884 N   0  0  0  0  0  0  0  0  0  0  0  0
   -4.7961    4.7584   -3.8606 C   0  0  0  0  0  0  0  0  0  0  0  0
   -6.8140    3.0905   -3.1058 C   0  0  0  0  0  0  0  0  0  0  0  0
   -6.1083    5.1009   -4.1721 C   0  0  0  0  0  0  0  0  0  0  0  0
   -7.1403    4.2516   -3.7888 C   0  0  0  0  0  0  0  0  0  0  0  0
    3.7907   -0.4888    2.8064 H   0  0  0  0  0  0  0  0  0  0  0  0
    6.3653   -4.5340    4.1322 H   0  0  0  0  0  0  0  0  0  0  0  0
    3.9102   -4.6736    3.8163 H   0  0  0  0  0  0  0  0  0  0  0  0
   -0.0452   -3.3198    1.1359 H   0  0  0  0  0  0  0  0  0  0  0  0
   -0.2506   -2.5157    2.6928 H   0  0  0  0  0  0  0  0  0  0  0  0
    3.4953   -2.3432    0.7264 H   0  0  0  0  0  0  0  0  0  0  0  0
    2.1528   -3.1816   -0.0268 H   0  0  0  0  0  0  0  0  0  0  0  0
   -1.3192   -1.2479    0.8572 H   0  0  0  0  0  0  0  0  0  0  0  0
   -0.0665   -0.3002    1.6781 H   0  0  0  0  0  0  0  0  0  0  0  0
    2.5150   -0.9897   -1.1003 H   0  0  0  0  0  0  0  0  0  0  0  0
    2.3634   -0.1604    0.4582 H   0  0  0  0  0  0  0  0  0  0  0  0
    0.6467    0.4418   -1.9522 H   0  0  0  0  0  0  0  0  0  0  0  0
    0.4693    1.2249   -0.3709 H   0  0  0  0  0  0  0  0  0  0  0  0
   -1.8489    0.5399   -0.3837 H   0  0  0  0  0  0  0  0  0  0  0  0
   -1.2244    2.6717   -1.3685 H   0  0  0  0  0  0  0  0  0  0  0  0
   -1.0521    1.8467   -2.9131 H   0  0  0  0  0  0  0  0  0  0  0  0
   -3.4504    1.2067   -2.8776 H   0  0  0  0  0  0  0  0  0  0  0  0
   -3.6335    2.0116   -1.2806 H   0  0  0  0  0  0  0  0  0  0  0  0
   -3.9682    5.3974   -4.1448 H   0  0  0  0  0  0  0  0  0  0  0  0
   -7.5853    2.3955   -2.7858 H   0  0  0  0  0  0  0  0  0  0  0  0
   -6.3223    6.0206   -4.7088 H   0  0  0  0  0  0  0  0  0  0  0  0
   -8.1739    4.4876   -4.0166 H   0  0  0  0  0  0  0  0  0  0  0  0
  1  2  1  0  0  0  0
  2  3  2  0  0  0  0
  2  4  1  0  0  0  0
  3  5  1  0  0  0  0
  3  6  1  0  0  0  0
  4  7  2  0  0  0  0
  6  8  2  0  0  0  0
  7  9  1  0  0  0  0
  9 10  2  0  0  0  0
  9 11  1  0  0  0  0
 11 12  1  0  0  0  0
 11 13  1  0  0  0  0
 12 14  1  0  0  0  0
 13 15  1  0  0  0  0
 14 16  1  0  0  0  0
 16 17  1  0  0  0  0
 16 18  1  0  0  0  0
 18 19  1  0  0  0  0
 19 20  1  0  0  0  0
 20 21  1  0  0  0  0
 21 22  1  0  0  0  0
 22 23  1  0  0  0  0
 23 24  2  0  0  0  0
 23 25  1  0  0  0  0
 24 26  1  0  0  0  0
 25 27  2  0  0  0  0
 26 28  2  0  0  0  0
  7  8  1  0  0  0  0
 15 16  1  0  0  0  0
 27 28  1  0  0  0  0
  4 29  1  0  0  0  0
  6 30  1  0  0  0  0
  8 31  1  0  0  0  0
 12 32  1  0  0  0  0
 12 33  1  0  0  0  0
 13 34  1  0  0  0  0
 13 35  1  0  0  0  0
 14 36  1  0  0  0  0
 14 37  1  0  0  0  0
 15 38  1  0  0  0  0
 15 39  1  0  0  0  0
 18 40  1  0  0  0  0
 18 41  1  0  0  0  0
 19 42  1  0  0  0  0
 20 43  1  0  0  0  0
 20 44  1  0  0  0  0
 21 45  1  0  0  0  0
 21 46  1  0  0  0  0
 25 47  1  0  0  0  0
 26 48  1  0  0  0  0
 27 49  1  0  0  0  0
 28 50  1  0  0  0  0
M  END
>  <Molecule ChEMBL ID>
CHEMBL4754941

>  <Molecule Name>


>  <Molecule Max Phase>
None

>  <Molecular Weight>
426.32

>  <#RO5 Violations>
0

>  <AlogP>
4.00

>  <Compound Key>
19

>  <Smiles>
O=C(c1ccc(Cl)c(Cl)c1)N1CCC(F)(CNCCOc2ccccn2)CC1

>  <Standard Type>
Ki

>  <Standard Relation>
'='

>  <Standard Value>
0.03388

>  <Standard Units>
nM

>  <pChEMBL Value>
10.47

>  <Data Validity Comment>


>  <Comment>


>  <Uo Units>
UO_0000065

>  <Ligand Efficiency BEI>
24.56

>  <Ligand Efficiency LE>
0.51

>  <Ligand Efficiency LLE>
6.47

>  <Ligand Efficiency SEI>
19.23

>  <Potential Duplicate>
0

>  <Assay ChEMBL ID>
CHEMBL4707367

>  <Assay Description>
Displacement of [3H]8-OH-DPAT from recombinant human 5HT1A receptor stably expressed in CHO-K1 cell membranes measured after 60 mins by microbeta2 scintillation counting method

>  <Assay Type>
B

>  <BAO Format ID>
BAO_0000249

>  <BAO Label>
cell membrane format

>  <Assay Organism>
Homo sapiens

>  <Assay Tissue ChEMBL ID>
None

>  <Assay Tissue Name>
None

>  <Assay Cell Type>
CHO-K1

>  <Assay Subcellular Fraction>
Cell membrane

>  <Assay Parameters>


>  <Assay Variant Accession>


>  <Assay Variant Mutation>


>  <Target ChEMBL ID>
CHEMBL214

>  <Target Name>
Serotonin 1a (5-HT1a) receptor

>  <Target Organism>
Homo sapiens

>  <SmilesFragFp 3>


>  <Target Type>
SINGLE PROTEIN

>  <Document ChEMBL ID>
CHEMBL4706479

>  <Source ID>
1

>  <Source Description>
Scientific Literature

>  <Document Journal>
J Med Chem

>  <Document Year>
2019

>  <Cell ChEMBL ID>
None

>  <SmilesFragFp 4>


>  <Properties>
TIME = 1.0 hr

>  <Action Type>
AGONIST

>  <Row-ID>
5209

>  <Neighbor Similarity FragFp 95%>
1; 0.97674; 1; 0.98605; 1; 1; 1; 0.97674; 0.98605; 1; 1; 0.97674

>  <Neighbor Count>
12

>  <Neighbor>
5829; 5820; 5744; 5745; 5691; 5690; 5663; 941; 942; 3354; 4917; 5182

>  <Neighbor Analysis X>
0.28671232

>  <Neighbor Analysis Y>
-0.27293554

>  <Row-ID 2>
5209

>  <Neighbor Similarity FragFp 95% 2>
1; 0.97674; 0.98605; 1; 1; 1; 1; 0.97674; 0.98605; 1; 1; 0.97674

>  <Neighbor Count 2>
12

>  <Neighbor 2>
5829; 5820; 5745; 5744; 5690; 5691; 5663; 941; 942; 3354; 4917; 5182

>  <Neighbor Analysis X 2>
0.40275493

>  <Neighbor Analysis Y 2>
-0.38266903

>  <SALI pChEMBL Value/FragFp>
0; 11.18; 187.05; 0; 0; 0; 0; 15.48; 146.92; 0; 0; 11.18

>  <MMFF94 Energy>


>  <MMFF94 Energy 2>
55.249

$$$$
CHEMBL4746386
Actelion Java MolfileCreator 1.0

 51 53  0  0  0  0  0  0  0  0999 V2000
    1.2187   -7.5742   -0.9749 Cl  0  0  0  0  0  0  0  0  0  0  0  0
    0.6500   -5.9720   -0.7039 C   0  0  0  0  0  0  0  0  0  0  0  0
   -0.7072   -5.7274   -0.4879 C   0  0  0  0  0  0  0  0  0  0  0  0
    1.5576   -4.9143   -0.7010 C   0  0  0  0  0  0  0  0  0  0  0  0
   -1.5930   -6.7344   -0.4895 F   0  0  0  0  0  0  0  0  0  0  0  0
   -1.1711   -4.4330   -0.2603 C   0  0  0  0  0  0  0  0  0  0  0  0
    1.0898   -3.6116   -0.4965 C   0  0  0  0  0  0  0  0  0  0  0  0
   -0.2694   -3.3687   -0.2566 C   0  0  0  0  0  0  0  0  0  0  0  0
    2.0678   -2.5053   -0.4541 C   0  0  0  0  0  0  0  0  0  0  0  0
    2.9715   -2.5957    0.3730 O   0  0  0  0  0  0  0  0  0  0  0  0
    1.9212   -1.4352   -1.3314 N   0  0  0  0  0  0  0  0  0  0  0  0
    1.0755   -1.4187   -2.5244 C   0  0  0  0  0  0  0  0  0  0  0  0
    2.8202   -0.2927   -1.2001 C   0  0  0  0  0  0  0  0  0  0  0  0
    0.2415   -0.1441   -2.5764 C   0  0  0  0  0  0  0  0  0  0  0  0
    2.0387    1.0170   -1.2301 C   0  0  0  0  0  0  0  0  0  0  0  0
    1.1429    1.0934   -2.4706 C   0  0  0  0  0  0  0  0  0  0  0  0
    1.9685    1.0851   -3.5689 F   0  0  0  0  0  0  0  0  0  0  0  0
    0.3349    2.4131   -2.5465 C   0  0  0  0  0  0  0  0  0  0  0  0
   -0.6111    2.6832   -1.4569 N   0  0  0  0  0  0  0  0  0  0  0  0
   -0.1199    3.7177   -0.5339 C   0  0  0  0  0  0  0  0  0  0  0  0
   -0.9747    3.7491    0.7422 C   0  0  0  0  0  0  0  0  0  0  0  0
   -0.8276    2.4822    1.3907 O   0  0  0  0  0  0  0  0  0  0  0  0
   -1.5720    2.2423    2.5140 C   0  0  0  0  0  0  0  0  0  0  0  0
   -1.5229    0.9384    3.0344 C   0  0  0  0  0  0  0  0  0  0  0  0
   -2.3523    3.1998    3.1697 C   0  0  0  0  0  0  0  0  0  0  0  0
   -0.5849   -0.2978    2.2680 Cl  0  0  0  0  0  0  0  0  0  0  0  0
   -2.2414    0.5999    4.1844 C   0  0  0  0  0  0  0  0  0  0  0  0
   -3.0718    2.8591    4.3204 C   0  0  0  0  0  0  0  0  0  0  0  0
   -3.0170    1.5625    4.8275 C   0  0  0  0  0  0  0  0  0  0  0  0
    2.6200   -5.0928   -0.8490 H   0  0  0  0  0  0  0  0  0  0  0  0
   -2.2286   -4.2660   -0.0780 H   0  0  0  0  0  0  0  0  0  0  0  0
   -0.6207   -2.3595   -0.0567 H   0  0  0  0  0  0  0  0  0  0  0  0
    1.7442   -1.4729   -3.3924 H   0  0  0  0  0  0  0  0  0  0  0  0
    0.4281   -2.2955   -2.5828 H   0  0  0  0  0  0  0  0  0  0  0  0
    3.3962   -0.3496   -0.2707 H   0  0  0  0  0  0  0  0  0  0  0  0
    3.5358   -0.3379   -2.0297 H   0  0  0  0  0  0  0  0  0  0  0  0
   -0.3132   -0.1248   -3.5215 H   0  0  0  0  0  0  0  0  0  0  0  0
   -0.4894   -0.1604   -1.7595 H   0  0  0  0  0  0  0  0  0  0  0  0
    2.7482    1.8523   -1.2256 H   0  0  0  0  0  0  0  0  0  0  0  0
    1.4329    1.0852   -0.3189 H   0  0  0  0  0  0  0  0  0  0  0  0
    1.0311    3.2510   -2.6863 H   0  0  0  0  0  0  0  0  0  0  0  0
   -0.2472    2.3884   -3.4766 H   0  0  0  0  0  0  0  0  0  0  0  0
   -0.8008    1.8382   -0.9134 H   0  0  0  0  0  0  0  0  0  0  0  0
    0.9172    3.5071   -0.2490 H   0  0  0  0  0  0  0  0  0  0  0  0
   -0.1564    4.6969   -1.0231 H   0  0  0  0  0  0  0  0  0  0  0  0
   -0.6050    4.5475    1.3960 H   0  0  0  0  0  0  0  0  0  0  0  0
   -2.0251    3.9313    0.4834 H   0  0  0  0  0  0  0  0  0  0  0  0
   -2.4198    4.2235    2.8160 H   0  0  0  0  0  0  0  0  0  0  0  0
   -2.1986   -0.4106    4.5822 H   0  0  0  0  0  0  0  0  0  0  0  0
   -3.6752    3.6117    4.8238 H   0  0  0  0  0  0  0  0  0  0  0  0
   -3.5762    1.3024    5.7232 H   0  0  0  0  0  0  0  0  0  0  0  0
  1  2  1  0  0  0  0
  2  3  2  0  0  0  0
  2  4  1  0  0  0  0
  3  5  1  0  0  0  0
  3  6  1  0  0  0  0
  4  7  2  0  0  0  0
  6  8  2  0  0  0  0
  7  9  1  0  0  0  0
  9 10  2  0  0  0  0
  9 11  1  0  0  0  0
 11 12  1  0  0  0  0
 11 13  1  0  0  0  0
 12 14  1  0  0  0  0
 13 15  1  0  0  0  0
 14 16  1  0  0  0  0
 16 17  1  0  0  0  0
 16 18  1  0  0  0  0
 18 19  1  0  0  0  0
 19 20  1  0  0  0  0
 20 21  1  0  0  0  0
 21 22  1  0  0  0  0
 22 23  1  0  0  0  0
 23 24  2  0  0  0  0
 23 25  1  0  0  0  0
 24 26  1  0  0  0  0
 24 27  1  0  0  0  0
 25 28  2  0  0  0  0
 27 29  2  0  0  0  0
  7  8  1  0  0  0  0
 15 16  1  0  0  0  0
 28 29  1  0  0  0  0
  4 30  1  0  0  0  0
  6 31  1  0  0  0  0
  8 32  1  0  0  0  0
 12 33  1  0  0  0  0
 12 34  1  0  0  0  0
 13 35  1  0  0  0  0
 13 36  1  0  0  0  0
 14 37  1  0  0  0  0
 14 38  1  0  0  0  0
 15 39  1  0  0  0  0
 15 40  1  0  0  0  0
 18 41  1  0  0  0  0
 18 42  1  0  0  0  0
 19 43  1  0  0  0  0
 20 44  1  0  0  0  0
 20 45  1  0  0  0  0
 21 46  1  0  0  0  0
 21 47  1  0  0  0  0
 25 48  1  0  0  0  0
 27 49  1  0  0  0  0
 28 50  1  0  0  0  0
 29 51  1  0  0  0  0
M  END
>  <Molecule ChEMBL ID>
CHEMBL4746386

>  <Molecule Name>


>  <Molecule Max Phase>
None

>  <Molecular Weight>
443.32

>  <#RO5 Violations>
0

>  <AlogP>
4.75

>  <Compound Key>
32

>  <Smiles>
O=C(c1ccc(F)c(Cl)c1)N1CCC(F)(CNCCOc2ccccc2Cl)CC1

>  <Standard Type>
Ki

>  <Standard Relation>
'='

>  <Standard Value>
0.01288

>  <Standard Units>
nM

>  <pChEMBL Value>
10.89

>  <Data Validity Comment>


>  <Comment>


>  <Uo Units>
UO_0000065

>  <Ligand Efficiency BEI>
24.56

>  <Ligand Efficiency LE>
0.51

>  <Ligand Efficiency LLE>
6.14

>  <Ligand Efficiency SEI>
26.20

>  <Potential Duplicate>
0

>  <Assay ChEMBL ID>
CHEMBL4670397

>  <Assay Description>
Displacement of [3H]8-OH-DPAT from human 5-HT1A receptor stably expressed in CHO-K1 cell membranes measured after 60 mins by Microbeta2 scintillation counting method

>  <Assay Type>
B

>  <BAO Format ID>
BAO_0000219

>  <BAO Label>
cell-based format

>  <Assay Organism>
Homo sapiens

>  <Assay Tissue ChEMBL ID>
None

>  <Assay Tissue Name>
None

>  <Assay Cell Type>
CHO-K1

>  <Assay Subcellular Fraction>
None

>  <Assay Parameters>


>  <Assay Variant Accession>


>  <Assay Variant Mutation>


>  <Target ChEMBL ID>
CHEMBL214

>  <Target Name>
Serotonin 1a (5-HT1a) receptor

>  <Target Organism>
Homo sapiens

>  <SmilesFragFp 3>


>  <Target Type>
SINGLE PROTEIN

>  <Document ChEMBL ID>
CHEMBL4665789

>  <Source ID>
1

>  <Source Description>
Scientific Literature

>  <Document Journal>
J Med Chem

>  <Document Year>
2020

>  <Cell ChEMBL ID>
None

>  <SmilesFragFp 4>


>  <Properties>
TIME = 1.0 hr

>  <Action Type>
AGONIST

>  <Row-ID>
1078

>  <Neighbor Similarity FragFp 95%>
0.9823; 0.9823; 1; 0.96522

>  <Neighbor Count>
4

>  <Neighbor>
5606; 5315; 5181; 2675

>  <Neighbor Analysis X>
0.57955575

>  <Neighbor Analysis Y>
0.231449

>  <Row-ID 2>
1078

>  <Neighbor Similarity FragFp 95% 2>
0.9823; 0.9823; 1; 0.96522

>  <Neighbor Count 2>
4

>  <Neighbor 2>
5606; 5315; 5181; 2675

>  <Neighbor Analysis X 2>
0.0026047921

>  <Neighbor Analysis Y 2>
0.41294032

>  <SALI pChEMBL Value/FragFp>
83.055; 21.47; 0; 27.6

>  <MMFF94 Energy>


>  <MMFF94 Energy 2>
86.094

$$$$
CHEMBL4760271
Actelion Java MolfileCreator 1.0

 51 53  0  0  0  0  0  0  0  0999 V2000
    2.4242   -7.6108    1.6965 Cl  0  0  0  0  0  0  0  0  0  0  0  0
    1.8171   -6.0343    2.0274 C   0  0  0  0  0  0  0  0  0  0  0  0
    0.4597   -5.8359    2.2872 C   0  0  0  0  0  0  0  0  0  0  0  0
    2.6933   -4.9507    2.0346 C   0  0  0  0  0  0  0  0  0  0  0  0
   -0.3960   -6.8686    2.2820 F   0  0  0  0  0  0  0  0  0  0  0  0
   -0.0356   -4.5623    2.5634 C   0  0  0  0  0  0  0  0  0  0  0  0
    2.1917   -3.6702    2.2893 C   0  0  0  0  0  0  0  0  0  0  0  0
    0.8339   -3.4716    2.5729 C   0  0  0  0  0  0  0  0  0  0  0  0
    3.1320   -2.5342    2.3295 C   0  0  0  0  0  0  0  0  0  0  0  0
    3.9911   -2.5571    3.2065 O   0  0  0  0  0  0  0  0  0  0  0  0
    2.9935   -1.5120    1.3983 N   0  0  0  0  0  0  0  0  0  0  0  0
    2.1286   -1.5319    0.2202 C   0  0  0  0  0  0  0  0  0  0  0  0
    3.8660   -0.3469    1.4887 C   0  0  0  0  0  0  0  0  0  0  0  0
    1.2434   -0.2917    0.1901 C   0  0  0  0  0  0  0  0  0  0  0  0
    3.0398    0.9337    1.4910 C   0  0  0  0  0  0  0  0  0  0  0  0
    2.0884    0.9861    0.2867 C   0  0  0  0  0  0  0  0  0  0  0  0
    2.8651    1.0583   -0.8392 F   0  0  0  0  0  0  0  0  0  0  0  0
    1.2244    2.2718    0.3619 C   0  0  0  0  0  0  0  0  0  0  0  0
    0.2643    2.4194   -0.7409 N   0  0  0  0  0  0  0  0  0  0  0  0
   -0.4672    3.6917   -0.6501 C   0  0  0  0  0  0  0  0  0  0  0  0
   -1.6069    3.7320   -1.6795 C   0  0  0  0  0  0  0  0  0  0  0  0
   -2.5547    2.7175   -1.3315 O   0  0  0  0  0  0  0  0  0  0  0  0
   -3.6234    2.5400   -2.1662 C   0  0  0  0  0  0  0  0  0  0  0  0
   -4.4756    1.4786   -1.8420 C   0  0  0  0  0  0  0  0  0  0  0  0
   -3.9233    3.3218   -3.2838 C   0  0  0  0  0  0  0  0  0  0  0  0
   -4.2135    0.7081   -0.7743 F   0  0  0  0  0  0  0  0  0  0  0  0
   -5.6024    1.1916   -2.6085 C   0  0  0  0  0  0  0  0  0  0  0  0
   -5.0550    3.0378   -4.0584 C   0  0  0  0  0  0  0  0  0  0  0  0
   -5.8937    1.9747   -3.7223 C   0  0  0  0  0  0  0  0  0  0  0  0
    3.7554   -5.0924    1.8507 H   0  0  0  0  0  0  0  0  0  0  0  0
   -1.0927   -4.4333    2.7767 H   0  0  0  0  0  0  0  0  0  0  0  0
    0.4602   -2.4780    2.8083 H   0  0  0  0  0  0  0  0  0  0  0  0
    2.7813   -1.5573   -0.6611 H   0  0  0  0  0  0  0  0  0  0  0  0
    1.5145   -2.4334    0.1764 H   0  0  0  0  0  0  0  0  0  0  0  0
    4.4843   -0.3840    2.3914 H   0  0  0  0  0  0  0  0  0  0  0  0
    4.5445   -0.3712    0.6278 H   0  0  0  0  0  0  0  0  0  0  0  0
    0.6732   -0.3067   -0.7451 H   0  0  0  0  0  0  0  0  0  0  0  0
    0.5292   -0.3293    1.0220 H   0  0  0  0  0  0  0  0  0  0  0  0
    3.7210    1.7923    1.4700 H   0  0  0  0  0  0  0  0  0  0  0  0
    2.4625    0.9884    2.4227 H   0  0  0  0  0  0  0  0  0  0  0  0
    0.6829    2.2859    1.3163 H   0  0  0  0  0  0  0  0  0  0  0  0
    1.9021    3.1345    0.3464 H   0  0  0  0  0  0  0  0  0  0  0  0
   -0.4235    1.6629   -0.7185 H   0  0  0  0  0  0  0  0  0  0  0  0
   -0.8964    3.8012    0.3532 H   0  0  0  0  0  0  0  0  0  0  0  0
    0.2174    4.5266   -0.8343 H   0  0  0  0  0  0  0  0  0  0  0  0
   -2.0867    4.7169   -1.6348 H   0  0  0  0  0  0  0  0  0  0  0  0
   -1.2049    3.5576   -2.6852 H   0  0  0  0  0  0  0  0  0  0  0  0
   -3.3010    4.1595   -3.5809 H   0  0  0  0  0  0  0  0  0  0  0  0
   -6.2419    0.3603   -2.3301 H   0  0  0  0  0  0  0  0  0  0  0  0
   -5.2817    3.6506   -4.9283 H   0  0  0  0  0  0  0  0  0  0  0  0
   -6.7707    1.7585   -4.3272 H   0  0  0  0  0  0  0  0  0  0  0  0
  1  2  1  0  0  0  0
  2  3  2  0  0  0  0
  2  4  1  0  0  0  0
  3  5  1  0  0  0  0
  3  6  1  0  0  0  0
  4  7  2  0  0  0  0
  6  8  2  0  0  0  0
  7  9  1  0  0  0  0
  9 10  2  0  0  0  0
  9 11  1  0  0  0  0
 11 12  1  0  0  0  0
 11 13  1  0  0  0  0
 12 14  1  0  0  0  0
 13 15  1  0  0  0  0
 14 16  1  0  0  0  0
 16 17  1  0  0  0  0
 16 18  1  0  0  0  0
 18 19  1  0  0  0  0
 19 20  1  0  0  0  0
 20 21  1  0  0  0  0
 21 22  1  0  0  0  0
 22 23  1  0  0  0  0
 23 24  2  0  0  0  0
 23 25  1  0  0  0  0
 24 26  1  0  0  0  0
 24 27  1  0  0  0  0
 25 28  2  0  0  0  0
 27 29  2  0  0  0  0
  7  8  1  0  0  0  0
 15 16  1  0  0  0  0
 28 29  1  0  0  0  0
  4 30  1  0  0  0  0
  6 31  1  0  0  0  0
  8 32  1  0  0  0  0
 12 33  1  0  0  0  0
 12 34  1  0  0  0  0
 13 35  1  0  0  0  0
 13 36  1  0  0  0  0
 14 37  1  0  0  0  0
 14 38  1  0  0  0  0
 15 39  1  0  0  0  0
 15 40  1  0  0  0  0
 18 41  1  0  0  0  0
 18 42  1  0  0  0  0
 19 43  1  0  0  0  0
 20 44  1  0  0  0  0
 20 45  1  0  0  0  0
 21 46  1  0  0  0  0
 21 47  1  0  0  0  0
 25 48  1  0  0  0  0
 27 49  1  0  0  0  0
 28 50  1  0  0  0  0
 29 51  1  0  0  0  0
M  END
>  <Molecule ChEMBL ID>
CHEMBL4760271

>  <Molecule Name>


>  <Molecule Max Phase>
None

>  <Molecular Weight>
426.87

>  <#RO5 Violations>
0

>  <AlogP>
4.23

>  <Compound Key>
28

>  <Smiles>
O=C(c1ccc(F)c(Cl)c1)N1CCC(F)(CNCCOc2ccccc2F)CC1

>  <Standard Type>
Ki

>  <Standard Relation>
'='

>  <Standard Value>
0.01585

>  <Standard Units>
nM

>  <pChEMBL Value>
10.80

>  <Data Validity Comment>


>  <Comment>


>  <Uo Units>
UO_0000065

>  <Ligand Efficiency BEI>
25.30

>  <Ligand Efficiency LE>
0.51

>  <Ligand Efficiency LLE>
6.57

>  <Ligand Efficiency SEI>
25.98

>  <Potential Duplicate>
0

>  <Assay ChEMBL ID>
CHEMBL4670397

>  <Assay Description>
Displacement of [3H]8-OH-DPAT from human 5-HT1A receptor stably expressed in CHO-K1 cell membranes measured after 60 mins by Microbeta2 scintillation counting method

>  <Assay Type>
B

>  <BAO Format ID>
BAO_0000219

>  <BAO Label>
cell-based format

>  <Assay Organism>
Homo sapiens

>  <Assay Tissue ChEMBL ID>
None

>  <Assay Tissue Name>
None

>  <Assay Cell Type>
CHO-K1

>  <Assay Subcellular Fraction>
None

>  <Assay Parameters>


>  <Assay Variant Accession>


>  <Assay Variant Mutation>


>  <Target ChEMBL ID>
CHEMBL214

>  <Target Name>
Serotonin 1a (5-HT1a) receptor

>  <Target Organism>
Homo sapiens

>  <SmilesFragFp 3>


>  <Target Type>
SINGLE PROTEIN

>  <Document ChEMBL ID>
CHEMBL4665789

>  <Source ID>
1

>  <Source Description>
Scientific Literature

>  <Document Journal>
J Med Chem

>  <Document Year>
2020

>  <Cell ChEMBL ID>
None

>  <SmilesFragFp 4>


>  <Properties>
TIME = 1.0 hr

>  <Action Type>
AGONIST

>  <Row-ID>
5181

>  <Neighbor Similarity FragFp 95%>
0.9823; 0.9823; 1; 0.96522

>  <Neighbor Count>
4

>  <Neighbor>
5606; 5315; 1078; 2675

>  <Neighbor Analysis X>
0.56138915

>  <Neighbor Analysis Y>
0.1843254

>  <Row-ID 2>
5181

>  <Neighbor Similarity FragFp 95% 2>
0.9823; 0.9823; 1; 0.96522

>  <Neighbor Count 2>
4

>  <Neighbor 2>
5606; 5315; 1078; 2675

>  <Neighbor Analysis X 2>
-0.0044905473

>  <Neighbor Analysis Y 2>
0.43874708

>  <SALI pChEMBL Value/FragFp>
77.97; 16.385; 0; 25.013

>  <MMFF94 Energy>


>  <MMFF94 Energy 2>
84.918

$$$$
CHEMBL4797282
Actelion Java MolfileCreator 1.0

 51 53  0  0  0  0  0  0  0  0999 V2000
   -0.7309   -6.4290   -4.5541 Cl  0  0  0  0  0  0  0  0  0  0  0  0
   -0.5113   -5.6842   -3.0177 C   0  0  0  0  0  0  0  0  0  0  0  0
   -1.2285   -6.1253   -1.9043 C   0  0  0  0  0  0  0  0  0  0  0  0
    0.3929   -4.6308   -2.8928 C   0  0  0  0  0  0  0  0  0  0  0  0
   -2.1034   -7.1361   -2.0110 F   0  0  0  0  0  0  0  0  0  0  0  0
   -1.0471   -5.5290   -0.6580 C   0  0  0  0  0  0  0  0  0  0  0  0
    0.5564   -4.0156   -1.6460 C   0  0  0  0  0  0  0  0  0  0  0  0
   -0.1448   -4.4735   -0.5238 C   0  0  0  0  0  0  0  0  0  0  0  0
    1.5344   -2.9218   -1.4784 C   0  0  0  0  0  0  0  0  0  0  0  0
    2.4406   -3.1047   -0.6699 O   0  0  0  0  0  0  0  0  0  0  0  0
    1.3879   -1.7618   -2.2308 N   0  0  0  0  0  0  0  0  0  0  0  0
    0.1956   -1.3697   -2.9835 C   0  0  0  0  0  0  0  0  0  0  0  0
    2.4373   -0.7493   -2.1796 C   0  0  0  0  0  0  0  0  0  0  0  0
   -0.3988   -0.0879   -2.4050 C   0  0  0  0  0  0  0  0  0  0  0  0
    1.9057    0.5382   -1.5610 C   0  0  0  0  0  0  0  0  0  0  0  0
    0.6598    1.0186   -2.3153 C   0  0  0  0  0  0  0  0  0  0  0  0
    1.0506    1.3116   -3.5994 F   0  0  0  0  0  0  0  0  0  0  0  0
    0.0827    2.3264   -1.7252 C   0  0  0  0  0  0  0  0  0  0  0  0
   -0.4374    2.2072   -0.3578 N   0  0  0  0  0  0  0  0  0  0  0  0
   -1.0251    3.4771    0.0986 C   0  0  0  0  0  0  0  0  0  0  0  0
   -1.4227    3.3915    1.5800 C   0  0  0  0  0  0  0  0  0  0  0  0
   -0.2306    3.2392    2.3589 O   0  0  0  0  0  0  0  0  0  0  0  0
   -0.3812    3.1197    3.7128 C   0  0  0  0  0  0  0  0  0  0  0  0
   -1.5876    3.1609    4.4118 C   0  0  0  0  0  0  0  0  0  0  0  0
    0.8141    2.9438    4.4177 C   0  0  0  0  0  0  0  0  0  0  0  0
   -1.5867    3.0249    5.8022 C   0  0  0  0  0  0  0  0  0  0  0  0
    0.8109    2.8080    5.8071 C   0  0  0  0  0  0  0  0  0  0  0  0
   -3.0780    3.0763    6.6625 Cl  0  0  0  0  0  0  0  0  0  0  0  0
   -0.3951    2.8486    6.5029 C   0  0  0  0  0  0  0  0  0  0  0  0
    0.9711   -4.2937   -3.7489 H   0  0  0  0  0  0  0  0  0  0  0  0
   -1.6034   -5.8958    0.1996 H   0  0  0  0  0  0  0  0  0  0  0  0
    0.0188   -4.0125    0.4484 H   0  0  0  0  0  0  0  0  0  0  0  0
    0.4958   -1.2230   -4.0274 H   0  0  0  0  0  0  0  0  0  0  0  0
   -0.5714   -2.1461   -2.9637 H   0  0  0  0  0  0  0  0  0  0  0  0
    3.3031   -1.1039   -1.6114 H   0  0  0  0  0  0  0  0  0  0  0  0
    2.7763   -0.5734   -3.2075 H   0  0  0  0  0  0  0  0  0  0  0  0
   -1.2282    0.2359   -3.0442 H   0  0  0  0  0  0  0  0  0  0  0  0
   -0.8080   -0.3035   -1.4104 H   0  0  0  0  0  0  0  0  0  0  0  0
    2.6899    1.3026   -1.6045 H   0  0  0  0  0  0  0  0  0  0  0  0
    1.6711    0.3568   -0.5056 H   0  0  0  0  0  0  0  0  0  0  0  0
   -0.7179    2.6713   -2.3924 H   0  0  0  0  0  0  0  0  0  0  0  0
    0.8629    3.0976   -1.7629 H   0  0  0  0  0  0  0  0  0  0  0  0
    0.3197    1.9687    0.2884 H   0  0  0  0  0  0  0  0  0  0  0  0
   -0.2958    4.2867   -0.0250 H   0  0  0  0  0  0  0  0  0  0  0  0
   -1.9138    3.7081   -0.4987 H   0  0  0  0  0  0  0  0  0  0  0  0
   -1.9308    4.3220    1.8603 H   0  0  0  0  0  0  0  0  0  0  0  0
   -2.0952    2.5384    1.7341 H   0  0  0  0  0  0  0  0  0  0  0  0
   -2.5363    3.2967    3.9049 H   0  0  0  0  0  0  0  0  0  0  0  0
    1.7578    2.9114    3.8777 H   0  0  0  0  0  0  0  0  0  0  0  0
    1.7468    2.6707    6.3425 H   0  0  0  0  0  0  0  0  0  0  0  0
   -0.4002    2.7429    7.5844 H   0  0  0  0  0  0  0  0  0  0  0  0
  1  2  1  0  0  0  0
  2  3  2  0  0  0  0
  2  4  1  0  0  0  0
  3  5  1  0  0  0  0
  3  6  1  0  0  0  0
  4  7  2  0  0  0  0
  6  8  2  0  0  0  0
  7  9  1  0  0  0  0
  9 10  2  0  0  0  0
  9 11  1  0  0  0  0
 11 12  1  0  0  0  0
 11 13  1  0  0  0  0
 12 14  1  0  0  0  0
 13 15  1  0  0  0  0
 14 16  1  0  0  0  0
 16 17  1  0  0  0  0
 16 18  1  0  0  0  0
 18 19  1  0  0  0  0
 19 20  1  0  0  0  0
 20 21  1  0  0  0  0
 21 22  1  0  0  0  0
 22 23  1  0  0  0  0
 23 24  2  0  0  0  0
 23 25  1  0  0  0  0
 24 26  1  0  0  0  0
 25 27  2  0  0  0  0
 26 28  1  0  0  0  0
 26 29  2  0  0  0  0
  7  8  1  0  0  0  0
 15 16  1  0  0  0  0
 27 29  1  0  0  0  0
  4 30  1  0  0  0  0
  6 31  1  0  0  0  0
  8 32  1  0  0  0  0
 12 33  1  0  0  0  0
 12 34  1  0  0  0  0
 13 35  1  0  0  0  0
 13 36  1  0  0  0  0
 14 37  1  0  0  0  0
 14 38  1  0  0  0  0
 15 39  1  0  0  0  0
 15 40  1  0  0  0  0
 18 41  1  0  0  0  0
 18 42  1  0  0  0  0
 19 43  1  0  0  0  0
 20 44  1  0  0  0  0
 20 45  1  0  0  0  0
 21 46  1  0  0  0  0
 21 47  1  0  0  0  0
 24 48  1  0  0  0  0
 25 49  1  0  0  0  0
 27 50  1  0  0  0  0
 29 51  1  0  0  0  0
M  END
>  <Molecule ChEMBL ID>
CHEMBL4797282

>  <Molecule Name>


>  <Molecule Max Phase>
None

>  <Molecular Weight>
443.32

>  <#RO5 Violations>
0

>  <AlogP>
4.75

>  <Compound Key>
33

>  <Smiles>
O=C(c1ccc(F)c(Cl)c1)N1CCC(F)(CNCCOc2cccc(Cl)c2)CC1

>  <Standard Type>
Ki

>  <Standard Relation>
'='

>  <Standard Value>
0.04786

>  <Standard Units>
nM

>  <pChEMBL Value>
10.32

>  <Data Validity Comment>


>  <Comment>


>  <Uo Units>
UO_0000065

>  <Ligand Efficiency BEI>
23.28

>  <Ligand Efficiency LE>
0.49

>  <Ligand Efficiency LLE>
5.57

>  <Ligand Efficiency SEI>
24.83

>  <Potential Duplicate>
0

>  <Assay ChEMBL ID>
CHEMBL4670397

>  <Assay Description>
Displacement of [3H]8-OH-DPAT from human 5-HT1A receptor stably expressed in CHO-K1 cell membranes measured after 60 mins by Microbeta2 scintillation counting method

>  <Assay Type>
B

>  <BAO Format ID>
BAO_0000219

>  <BAO Label>
cell-based format

>  <Assay Organism>
Homo sapiens

>  <Assay Tissue ChEMBL ID>
None

>  <Assay Tissue Name>
None

>  <Assay Cell Type>
CHO-K1

>  <Assay Subcellular Fraction>
None

>  <Assay Parameters>


>  <Assay Variant Accession>


>  <Assay Variant Mutation>


>  <Target ChEMBL ID>
CHEMBL214

>  <Target Name>
Serotonin 1a (5-HT1a) receptor

>  <Target Organism>
Homo sapiens

>  <SmilesFragFp 3>


>  <Target Type>
SINGLE PROTEIN

>  <Document ChEMBL ID>
CHEMBL4665789

>  <Source ID>
1

>  <Source Description>
Scientific Literature

>  <Document Journal>
J Med Chem

>  <Document Year>
2020

>  <Cell ChEMBL ID>
None

>  <SmilesFragFp 4>


>  <Properties>
TIME = 1.0 hr

>  <Action Type>
AGONIST

>  <Row-ID>
5035

>  <Neighbor Similarity FragFp 95%>
0.9907; 0.97727; 0.9907; 0.97706; 0.9907; 1; 0.98174; 1; 0.97706; 1; 1; 1; 1; 0.99078

>  <Neighbor Count>
14

>  <Neighbor>
5820; 5184; 5182; 5183; 941; 2302; 2305; 2306; 2678; 5036; 4308; 4547; 5018; 5037

>  <Neighbor Analysis X>
0.30925244

>  <Neighbor Analysis Y>
-0.18093316

>  <Row-ID 2>
5035

>  <Neighbor Similarity FragFp 95% 2>
0.9907; 0.97727; 0.97706; 0.9907; 0.9907; 0.99078; 1; 0.98174; 1; 0.97706; 1; 1; 1; 1

>  <Neighbor Count 2>
14

>  <Neighbor 2>
5820; 5184; 5183; 5182; 941; 5037; 2302; 2305; 2306; 2678; 5036; 4308; 4547; 5018

>  <Neighbor Analysis X 2>
0.46851683

>  <Neighbor Analysis Y 2>
-0.35654795

>  <SALI pChEMBL Value/FragFp>
11.825; 33.44; 9.592; 11.825; 54.825; 22.785; 0; 8.2125; 0; 83.276; 0; 0; 0; 0

>  <MMFF94 Energy>


>  <MMFF94 Energy 2>
65.047

$$$$
CHEMBL4759759
Actelion Java MolfileCreator 1.0

 51 53  0  0  0  0  0  0  0  0999 V2000
   -2.1250   -5.8929    0.8169 Cl  0  0  0  0  0  0  0  0  0  0  0  0
   -1.3630   -5.4470   -0.6683 C   0  0  0  0  0  0  0  0  0  0  0  0
   -1.6870   -6.0551   -1.8893 C   0  0  0  0  0  0  0  0  0  0  0  0
   -0.3940   -4.4418   -0.6241 C   0  0  0  0  0  0  0  0  0  0  0  0
   -2.8782   -7.3002   -2.0163 Cl  0  0  0  0  0  0  0  0  0  0  0  0
   -1.0337   -5.6607   -3.0631 C   0  0  0  0  0  0  0  0  0  0  0  0
    0.2356   -4.0379   -1.8043 C   0  0  0  0  0  0  0  0  0  0  0  0
   -0.0656   -4.6559   -3.0223 C   0  0  0  0  0  0  0  0  0  0  0  0
    1.2823   -2.9997   -1.7337 C   0  0  0  0  0  0  0  0  0  0  0  0
    2.2574   -3.2406   -1.0272 O   0  0  0  0  0  0  0  0  0  0  0  0
    1.1171   -1.8241   -2.4570 N   0  0  0  0  0  0  0  0  0  0  0  0
   -0.1227   -1.3707   -3.0886 C   0  0  0  0  0  0  0  0  0  0  0  0
    2.2115   -0.8600   -2.4990 C   0  0  0  0  0  0  0  0  0  0  0  0
   -0.6010   -0.0715   -2.4449 C   0  0  0  0  0  0  0  0  0  0  0  0
    1.8000    0.4426   -1.8226 C   0  0  0  0  0  0  0  0  0  0  0  0
    0.5101    0.9862   -2.4497 C   0  0  0  0  0  0  0  0  0  0  0  0
    0.7884    1.2762   -3.7635 F   0  0  0  0  0  0  0  0  0  0  0  0
    0.0519    2.3113   -1.7971 C   0  0  0  0  0  0  0  0  0  0  0  0
   -0.3402    2.1989   -0.3873 N   0  0  0  0  0  0  0  0  0  0  0  0
   -0.8245    3.4877    0.1335 C   0  0  0  0  0  0  0  0  0  0  0  0
   -1.0792    3.4026    1.6461 C   0  0  0  0  0  0  0  0  0  0  0  0
    0.1756    3.1907    2.3032 O   0  0  0  0  0  0  0  0  0  0  0  0
    0.1526    3.0615    3.6646 C   0  0  0  0  0  0  0  0  0  0  0  0
   -0.9764    3.1512    4.4790 C   0  0  0  0  0  0  0  0  0  0  0  0
    1.4013    2.8210    4.2472 C   0  0  0  0  0  0  0  0  0  0  0  0
   -0.8460    2.9985    5.8616 C   0  0  0  0  0  0  0  0  0  0  0  0
    1.5273    2.6683    5.6292 C   0  0  0  0  0  0  0  0  0  0  0  0
   -2.2417    3.1109    6.8648 Cl  0  0  0  0  0  0  0  0  0  0  0  0
    0.3986    2.7575    6.4405 C   0  0  0  0  0  0  0  0  0  0  0  0
   -0.1220   -3.9746    0.3200 H   0  0  0  0  0  0  0  0  0  0  0  0
   -1.2704   -6.1392   -4.0109 H   0  0  0  0  0  0  0  0  0  0  0  0
    0.4564   -4.3642   -3.9308 H   0  0  0  0  0  0  0  0  0  0  0  0
    0.0832   -1.2236   -4.1551 H   0  0  0  0  0  0  0  0  0  0  0  0
   -0.9181   -2.1135   -3.0034 H   0  0  0  0  0  0  0  0  0  0  0  0
    3.1105   -1.2593   -2.0186 H   0  0  0  0  0  0  0  0  0  0  0  0
    2.4588   -0.6872   -3.5532 H   0  0  0  0  0  0  0  0  0  0  0  0
   -1.4728    0.2962   -2.9983 H   0  0  0  0  0  0  0  0  0  0  0  0
   -0.9216   -0.2812   -1.4170 H   0  0  0  0  0  0  0  0  0  0  0  0
    2.6100    1.1722   -1.9359 H   0  0  0  0  0  0  0  0  0  0  0  0
    1.6599    0.2595   -0.7508 H   0  0  0  0  0  0  0  0  0  0  0  0
    0.8591    3.0476   -1.9035 H   0  0  0  0  0  0  0  0  0  0  0  0
   -0.7923    2.6994   -2.3820 H   0  0  0  0  0  0  0  0  0  0  0  0
    0.4631    1.9192    0.1821 H   0  0  0  0  0  0  0  0  0  0  0  0
   -0.0758    4.2665   -0.0552 H   0  0  0  0  0  0  0  0  0  0  0  0
   -1.7562    3.7633   -0.3726 H   0  0  0  0  0  0  0  0  0  0  0  0
   -1.5161    4.3510    1.9810 H   0  0  0  0  0  0  0  0  0  0  0  0
   -1.7702    2.5776    1.8596 H   0  0  0  0  0  0  0  0  0  0  0  0
   -1.9625    3.3376    4.0689 H   0  0  0  0  0  0  0  0  0  0  0  0
    2.2850    2.7504    3.6169 H   0  0  0  0  0  0  0  0  0  0  0  0
    2.5034    2.4800    6.0690 H   0  0  0  0  0  0  0  0  0  0  0  0
    0.4941    2.6386    7.5164 H   0  0  0  0  0  0  0  0  0  0  0  0
  1  2  1  0  0  0  0
  2  3  2  0  0  0  0
  2  4  1  0  0  0  0
  3  5  1  0  0  0  0
  3  6  1  0  0  0  0
  4  7  2  0  0  0  0
  6  8  2  0  0  0  0
  7  9  1  0  0  0  0
  9 10  2  0  0  0  0
  9 11  1  0  0  0  0
 11 12  1  0  0  0  0
 11 13  1  0  0  0  0
 12 14  1  0  0  0  0
 13 15  1  0  0  0  0
 14 16  1  0  0  0  0
 16 17  1  0  0  0  0
 16 18  1  0  0  0  0
 18 19  1  0  0  0  0
 19 20  1  0  0  0  0
 20 21  1  0  0  0  0
 21 22  1  0  0  0  0
 22 23  1  0  0  0  0
 23 24  2  0  0  0  0
 23 25  1  0  0  0  0
 24 26  1  0  0  0  0
 25 27  2  0  0  0  0
 26 28  1  0  0  0  0
 26 29  2  0  0  0  0
  7  8  1  0  0  0  0
 15 16  1  0  0  0  0
 27 29  1  0  0  0  0
  4 30  1  0  0  0  0
  6 31  1  0  0  0  0
  8 32  1  0  0  0  0
 12 33  1  0  0  0  0
 12 34  1  0  0  0  0
 13 35  1  0  0  0  0
 13 36  1  0  0  0  0
 14 37  1  0  0  0  0
 14 38  1  0  0  0  0
 15 39  1  0  0  0  0
 15 40  1  0  0  0  0
 18 41  1  0  0  0  0
 18 42  1  0  0  0  0
 19 43  1  0  0  0  0
 20 44  1  0  0  0  0
 20 45  1  0  0  0  0
 21 46  1  0  0  0  0
 21 47  1  0  0  0  0
 24 48  1  0  0  0  0
 25 49  1  0  0  0  0
 27 50  1  0  0  0  0
 29 51  1  0  0  0  0
M  END
>  <Molecule ChEMBL ID>
CHEMBL4759759

>  <Molecule Name>


>  <Molecule Max Phase>
None

>  <Molecular Weight>
459.78

>  <#RO5 Violations>
1

>  <AlogP>
5.26

>  <Compound Key>
34

>  <Smiles>
O=C(c1ccc(Cl)c(Cl)c1)N1CCC(F)(CNCCOc2cccc(Cl)c2)CC1

>  <Standard Type>
Ki

>  <Standard Relation>
'='

>  <Standard Value>
0.02512

>  <Standard Units>
nM

>  <pChEMBL Value>
10.60

>  <Data Validity Comment>


>  <Comment>


>  <Uo Units>
UO_0000065

>  <Ligand Efficiency BEI>
23.05

>  <Ligand Efficiency LE>
0.50

>  <Ligand Efficiency LLE>
5.34

>  <Ligand Efficiency SEI>
25.50

>  <Potential Duplicate>
0

>  <Assay ChEMBL ID>
CHEMBL4670397

>  <Assay Description>
Displacement of [3H]8-OH-DPAT from human 5-HT1A receptor stably expressed in CHO-K1 cell membranes measured after 60 mins by Microbeta2 scintillation counting method

>  <Assay Type>
B

>  <BAO Format ID>
BAO_0000219

>  <BAO Label>
cell-based format

>  <Assay Organism>
Homo sapiens

>  <Assay Tissue ChEMBL ID>
None

>  <Assay Tissue Name>
None

>  <Assay Cell Type>
CHO-K1

>  <Assay Subcellular Fraction>
None

>  <Assay Parameters>


>  <Assay Variant Accession>


>  <Assay Variant Mutation>


>  <Target ChEMBL ID>
CHEMBL214

>  <Target Name>
Serotonin 1a (5-HT1a) receptor

>  <Target Organism>
Homo sapiens

>  <SmilesFragFp 3>


>  <Target Type>
SINGLE PROTEIN

>  <Document ChEMBL ID>
CHEMBL4665789

>  <Source ID>
1

>  <Source Description>
Scientific Literature

>  <Document Journal>
J Med Chem

>  <Document Year>
2020

>  <Cell ChEMBL ID>
None

>  <SmilesFragFp 4>


>  <Properties>
TIME = 1.0 hr

>  <Action Type>
AGONIST

>  <Row-ID>
5036

>  <Neighbor Similarity FragFp 95%>
0.9907; 0.97727; 0.9907; 0.97706; 0.9907; 1; 0.98174; 1; 0.97706; 1; 1; 1; 1; 0.99078

>  <Neighbor Count>
14

>  <Neighbor>
5820; 5184; 5182; 5183; 941; 2302; 2305; 2306; 2678; 4308; 4547; 5018; 5035; 5037

>  <Neighbor Analysis X>
0.35043475

>  <Neighbor Analysis Y>
-0.19593814

>  <Row-ID 2>
5036

>  <Neighbor Similarity FragFp 95% 2>
0.9907; 0.97727; 0.97706; 0.9907; 0.9907; 1; 0.98174; 1; 0.97706; 0.99078; 1; 1; 1; 1

>  <Neighbor Count 2>
14

>  <Neighbor 2>
5820; 5184; 5183; 5182; 941; 2302; 2305; 2306; 2678; 5037; 4308; 4547; 5018; 5035

>  <Neighbor Analysis X 2>
0.4698204

>  <Neighbor Analysis Y 2>
-0.28533852

>  <SALI pChEMBL Value/FragFp>
41.925; 45.76; 21.8; 41.925; 24.725; 0; 7.1175; 0; 95.484; 7.5951; 0; 0; 0; 0

>  <MMFF94 Energy>


>  <MMFF94 Energy 2>
67.121

$$$$
CHEMBL4739908
Actelion Java MolfileCreator 1.0

 51 53  0  0  0  0  0  0  0  0999 V2000
    4.6897   -1.2113    5.3379 Cl  0  0  0  0  0  0  0  0  0  0  0  0
    4.7487   -2.3112    4.0151 C   0  0  0  0  0  0  0  0  0  0  0  0
    5.8188   -3.1960    3.8714 C   0  0  0  0  0  0  0  0  0  0  0  0
    3.7137   -2.3102    3.0817 C   0  0  0  0  0  0  0  0  0  0  0  0
    6.8221   -3.2052    4.7612 F   0  0  0  0  0  0  0  0  0  0  0  0
    5.8647   -4.0911    2.8042 C   0  0  0  0  0  0  0  0  0  0  0  0
    3.7737   -3.1918    1.9965 C   0  0  0  0  0  0  0  0  0  0  0  0
    4.8339   -4.0962    1.8640 C   0  0  0  0  0  0  0  0  0  0  0  0
    2.6736   -3.2312    1.0138 C   0  0  0  0  0  0  0  0  0  0  0  0
    2.0283   -4.2735    0.9464 O   0  0  0  0  0  0  0  0  0  0  0  0
    2.4199   -2.1039    0.2407 N   0  0  0  0  0  0  0  0  0  0  0  0
    1.2731   -2.1076   -0.6610 C   0  0  0  0  0  0  0  0  0  0  0  0
    3.2875   -0.9343    0.1141 C   0  0  0  0  0  0  0  0  0  0  0  0
    0.4209   -0.8600   -0.4527 C   0  0  0  0  0  0  0  0  0  0  0  0
    2.4939    0.3402    0.3702 C   0  0  0  0  0  0  0  0  0  0  0  0
    1.2673    0.4156   -0.5514 C   0  0  0  0  0  0  0  0  0  0  0  0
    1.7360    0.5114   -1.8346 F   0  0  0  0  0  0  0  0  0  0  0  0
    0.4555    1.6985   -0.2348 C   0  0  0  0  0  0  0  0  0  0  0  0
   -0.7356    1.8833   -1.0747 N   0  0  0  0  0  0  0  0  0  0  0  0
   -1.4144    3.1524   -0.7754 C   0  0  0  0  0  0  0  0  0  0  0  0
   -2.7437    3.2525   -1.5388 C   0  0  0  0  0  0  0  0  0  0  0  0
   -3.6354    2.2565   -1.0237 O   0  0  0  0  0  0  0  0  0  0  0  0
   -4.8802    2.1870   -1.5857 C   0  0  0  0  0  0  0  0  0  0  0  0
   -5.3620    2.9940   -2.6145 C   0  0  0  0  0  0  0  0  0  0  0  0
   -5.7111    1.1992   -1.0437 C   0  0  0  0  0  0  0  0  0  0  0  0
   -6.6596    2.8037   -3.0840 C   0  0  0  0  0  0  0  0  0  0  0  0
   -7.0114    1.0155   -1.5214 C   0  0  0  0  0  0  0  0  0  0  0  0
   -7.1190    3.5828   -4.0727 F   0  0  0  0  0  0  0  0  0  0  0  0
   -7.4882    1.8242   -2.5488 C   0  0  0  0  0  0  0  0  0  0  0  0
    2.8656   -1.6411    3.1967 H   0  0  0  0  0  0  0  0  0  0  0  0
    6.6982   -4.7818    2.7175 H   0  0  0  0  0  0  0  0  0  0  0  0
    4.8496   -4.8026    1.0364 H   0  0  0  0  0  0  0  0  0  0  0  0
    1.6582   -2.1474   -1.6870 H   0  0  0  0  0  0  0  0  0  0  0  0
    0.6555   -2.9991   -0.5114 H   0  0  0  0  0  0  0  0  0  0  0  0
    4.1467   -0.9848    0.7854 H   0  0  0  0  0  0  0  0  0  0  0  0
    3.6902   -0.9372   -0.9062 H   0  0  0  0  0  0  0  0  0  0  0  0
   -0.3687   -0.8592   -1.2122 H   0  0  0  0  0  0  0  0  0  0  0  0
   -0.0600   -0.9087    0.5324 H   0  0  0  0  0  0  0  0  0  0  0  0
    3.1477    1.2027    0.1963 H   0  0  0  0  0  0  0  0  0  0  0  0
    2.1755    0.3675    1.4198 H   0  0  0  0  0  0  0  0  0  0  0  0
    1.1176    2.5607   -0.3840 H   0  0  0  0  0  0  0  0  0  0  0  0
    0.1561    1.6836    0.8208 H   0  0  0  0  0  0  0  0  0  0  0  0
   -1.4028    1.1235   -0.9265 H   0  0  0  0  0  0  0  0  0  0  0  0
   -1.6189    3.2176    0.3001 H   0  0  0  0  0  0  0  0  0  0  0  0
   -0.7710    3.9907   -1.0638 H   0  0  0  0  0  0  0  0  0  0  0  0
   -3.1681    4.2498   -1.3716 H   0  0  0  0  0  0  0  0  0  0  0  0
   -2.5695    3.0966   -2.6107 H   0  0  0  0  0  0  0  0  0  0  0  0
   -4.7676    3.7731   -3.0754 H   0  0  0  0  0  0  0  0  0  0  0  0
   -5.3405    0.5659   -0.2406 H   0  0  0  0  0  0  0  0  0  0  0  0
   -7.6456    0.2443   -1.0921 H   0  0  0  0  0  0  0  0  0  0  0  0
   -8.4944    1.6991   -2.9355 H   0  0  0  0  0  0  0  0  0  0  0  0
  1  2  1  0  0  0  0
  2  3  2  0  0  0  0
  2  4  1  0  0  0  0
  3  5  1  0  0  0  0
  3  6  1  0  0  0  0
  4  7  2  0  0  0  0
  6  8  2  0  0  0  0
  7  9  1  0  0  0  0
  9 10  2  0  0  0  0
  9 11  1  0  0  0  0
 11 12  1  0  0  0  0
 11 13  1  0  0  0  0
 12 14  1  0  0  0  0
 13 15  1  0  0  0  0
 14 16  1  0  0  0  0
 16 17  1  0  0  0  0
 16 18  1  0  0  0  0
 18 19  1  0  0  0  0
 19 20  1  0  0  0  0
 20 21  1  0  0  0  0
 21 22  1  0  0  0  0
 22 23  1  0  0  0  0
 23 24  2  0  0  0  0
 23 25  1  0  0  0  0
 24 26  1  0  0  0  0
 25 27  2  0  0  0  0
 26 28  1  0  0  0  0
 26 29  2  0  0  0  0
  7  8  1  0  0  0  0
 15 16  1  0  0  0  0
 27 29  1  0  0  0  0
  4 30  1  0  0  0  0
  6 31  1  0  0  0  0
  8 32  1  0  0  0  0
 12 33  1  0  0  0  0
 12 34  1  0  0  0  0
 13 35  1  0  0  0  0
 13 36  1  0  0  0  0
 14 37  1  0  0  0  0
 14 38  1  0  0  0  0
 15 39  1  0  0  0  0
 15 40  1  0  0  0  0
 18 41  1  0  0  0  0
 18 42  1  0  0  0  0
 19 43  1  0  0  0  0
 20 44  1  0  0  0  0
 20 45  1  0  0  0  0
 21 46  1  0  0  0  0
 21 47  1  0  0  0  0
 24 48  1  0  0  0  0
 25 49  1  0  0  0  0
 27 50  1  0  0  0  0
 29 51  1  0  0  0  0
M  END
>  <Molecule ChEMBL ID>
CHEMBL4739908

>  <Molecule Name>


>  <Molecule Max Phase>
None

>  <Molecular Weight>
426.87

>  <#RO5 Violations>
0

>  <AlogP>
4.23

>  <Compound Key>
29

>  <Smiles>
O=C(c1ccc(F)c(Cl)c1)N1CCC(F)(CNCCOc2cccc(F)c2)CC1

>  <Standard Type>
Ki

>  <Standard Relation>
'='

>  <Standard Value>
0.0166

>  <Standard Units>
nM

>  <pChEMBL Value>
10.78

>  <Data Validity Comment>


>  <Comment>


>  <Uo Units>
UO_0000065

>  <Ligand Efficiency BEI>
25.25

>  <Ligand Efficiency LE>
0.51

>  <Ligand Efficiency LLE>
6.55

>  <Ligand Efficiency SEI>
25.93

>  <Potential Duplicate>
0

>  <Assay ChEMBL ID>
CHEMBL4670397

>  <Assay Description>
Displacement of [3H]8-OH-DPAT from human 5-HT1A receptor stably expressed in CHO-K1 cell membranes measured after 60 mins by Microbeta2 scintillation counting method

>  <Assay Type>
B

>  <BAO Format ID>
BAO_0000219

>  <BAO Label>
cell-based format

>  <Assay Organism>
Homo sapiens

>  <Assay Tissue ChEMBL ID>
None

>  <Assay Tissue Name>
None

>  <Assay Cell Type>
CHO-K1

>  <Assay Subcellular Fraction>
None

>  <Assay Parameters>


>  <Assay Variant Accession>


>  <Assay Variant Mutation>


>  <Target ChEMBL ID>
CHEMBL214

>  <Target Name>
Serotonin 1a (5-HT1a) receptor

>  <Target Organism>
Homo sapiens

>  <SmilesFragFp 3>


>  <Target Type>
SINGLE PROTEIN

>  <Document ChEMBL ID>
CHEMBL4665789

>  <Source ID>
1

>  <Source Description>
Scientific Literature

>  <Document Journal>
J Med Chem

>  <Document Year>
2020

>  <Cell ChEMBL ID>
None

>  <SmilesFragFp 4>


>  <Properties>
TIME = 1.0 hr

>  <Action Type>
AGONIST

>  <Row-ID>
4547

>  <Neighbor Similarity FragFp 95%>
0.9907; 0.97727; 0.9907; 0.97706; 1; 1; 1; 0.99078; 0.9907; 1; 0.98174; 1; 0.97706; 1

>  <Neighbor Count>
14

>  <Neighbor>
5820; 5184; 5182; 5183; 5036; 5035; 5018; 5037; 941; 2302; 2305; 2306; 2678; 4308

>  <Neighbor Analysis X>
0.32327724

>  <Neighbor Analysis Y>
-0.16082612

>  <Row-ID 2>
4547

>  <Neighbor Similarity FragFp 95% 2>
0.9907; 0.97727; 0.97706; 0.9907; 0.99078; 1; 1; 1; 0.9907; 1; 0.98174; 1; 0.97706; 1

>  <Neighbor Count 2>
14

>  <Neighbor 2>
5820; 5184; 5183; 5182; 5037; 5036; 5035; 5018; 941; 2302; 2305; 2306; 2678; 4308

>  <Neighbor Analysis X 2>
0.45624223

>  <Neighbor Analysis Y 2>
-0.3211789

>  <SALI pChEMBL Value/FragFp>
61.275; 53.68; 29.648; 61.275; 27.125; 0; 0; 0; 5.375; 0; 16.972; 0; 103.33; 0

>  <MMFF94 Energy>


>  <MMFF94 Energy 2>
66.644

$$$$
CHEMBL4752833
Actelion Java MolfileCreator 1.0

 51 53  0  0  0  0  0  0  0  0999 V2000
    1.7062   -7.3275   -3.8216 Cl  0  0  0  0  0  0  0  0  0  0  0  0
    1.6189   -6.6252   -2.2454 C   0  0  0  0  0  0  0  0  0  0  0  0
    1.0450   -7.2948   -1.1559 C   0  0  0  0  0  0  0  0  0  0  0  0
    2.1459   -5.3418   -2.0792 C   0  0  0  0  0  0  0  0  0  0  0  0
    0.3710   -8.8792   -1.2942 Cl  0  0  0  0  0  0  0  0  0  0  0  0
    1.0081   -6.6805    0.1011 C   0  0  0  0  0  0  0  0  0  0  0  0
    2.0800   -4.7245   -0.8260 C   0  0  0  0  0  0  0  0  0  0  0  0
    1.5326   -5.3977    0.2696 C   0  0  0  0  0  0  0  0  0  0  0  0
    2.6645   -3.3832   -0.6216 C   0  0  0  0  0  0  0  0  0  0  0  0
    3.5406   -3.2830    0.2329 O   0  0  0  0  0  0  0  0  0  0  0  0
    2.2073   -2.3195   -1.3918 N   0  0  0  0  0  0  0  0  0  0  0  0
    0.9916   -2.3047   -2.2035 C   0  0  0  0  0  0  0  0  0  0  0  0
    2.9169   -1.0455   -1.3301 C   0  0  0  0  0  0  0  0  0  0  0  0
    0.0280   -1.2380   -1.6911 C   0  0  0  0  0  0  0  0  0  0  0  0
    2.0101    0.0530   -0.7903 C   0  0  0  0  0  0  0  0  0  0  0  0
    0.7114    0.1317   -1.6019 C   0  0  0  0  0  0  0  0  0  0  0  0
    1.0321    0.5127   -2.8800 F   0  0  0  0  0  0  0  0  0  0  0  0
   -0.2723    1.1852   -1.0387 C   0  0  0  0  0  0  0  0  0  0  0  0
    0.3082    2.5377   -1.0249 N   0  0  0  0  0  0  0  0  0  0  0  0
   -0.6792    3.5741   -0.7004 C   0  0  0  0  0  0  0  0  0  0  0  0
   -1.1329    3.5841    0.7663 C   0  0  0  0  0  0  0  0  0  0  0  0
   -2.0426    4.6752    0.9398 O   0  0  0  0  0  0  0  0  0  0  0  0
   -2.5627    4.8576    2.1916 C   0  0  0  0  0  0  0  0  0  0  0  0
   -2.2765    4.0897    3.3186 C   0  0  0  0  0  0  0  0  0  0  0  0
   -3.4598    5.9266    2.3010 C   0  0  0  0  0  0  0  0  0  0  0  0
   -2.8892    4.3979    4.5311 C   0  0  0  0  0  0  0  0  0  0  0  0
   -4.0691    6.2285    3.5216 C   0  0  0  0  0  0  0  0  0  0  0  0
   -2.6125    3.6556    5.6116 F   0  0  0  0  0  0  0  0  0  0  0  0
   -3.7815    5.4578    4.6441 C   0  0  0  0  0  0  0  0  0  0  0  0
    2.6133   -4.8262   -2.9145 H   0  0  0  0  0  0  0  0  0  0  0  0
    0.5795   -7.1998    0.9555 H   0  0  0  0  0  0  0  0  0  0  0  0
    1.5229   -4.9275    1.2511 H   0  0  0  0  0  0  0  0  0  0  0  0
    1.2851   -2.1000   -3.2393 H   0  0  0  0  0  0  0  0  0  0  0  0
    0.4796   -3.2686   -2.1851 H   0  0  0  0  0  0  0  0  0  0  0  0
    3.8159   -1.1222   -0.7104 H   0  0  0  0  0  0  0  0  0  0  0  0
    3.2470   -0.8052   -2.3478 H   0  0  0  0  0  0  0  0  0  0  0  0
   -0.8317   -1.1868   -2.3690 H   0  0  0  0  0  0  0  0  0  0  0  0
   -0.3446   -1.5315   -0.7015 H   0  0  0  0  0  0  0  0  0  0  0  0
    2.5544    1.0025   -0.8387 H   0  0  0  0  0  0  0  0  0  0  0  0
    1.7784   -0.1481    0.2630 H   0  0  0  0  0  0  0  0  0  0  0  0
   -1.1681    1.1903   -1.6719 H   0  0  0  0  0  0  0  0  0  0  0  0
   -0.5705    0.8949   -0.0252 H   0  0  0  0  0  0  0  0  0  0  0  0
    0.6827    2.7251   -1.9596 H   0  0  0  0  0  0  0  0  0  0  0  0
   -0.2272    4.5500   -0.9185 H   0  0  0  0  0  0  0  0  0  0  0  0
   -1.5494    3.5080   -1.3657 H   0  0  0  0  0  0  0  0  0  0  0  0
   -1.6413    2.6439    1.0076 H   0  0  0  0  0  0  0  0  0  0  0  0
   -0.2587    3.7173    1.4151 H   0  0  0  0  0  0  0  0  0  0  0  0
   -1.5890    3.2534    3.2985 H   0  0  0  0  0  0  0  0  0  0  0  0
   -3.6853    6.5306    1.4247 H   0  0  0  0  0  0  0  0  0  0  0  0
   -4.7632    7.0617    3.5924 H   0  0  0  0  0  0  0  0  0  0  0  0
   -4.2427    5.6744    5.6021 H   0  0  0  0  0  0  0  0  0  0  0  0
  1  2  1  0  0  0  0
  2  3  2  0  0  0  0
  2  4  1  0  0  0  0
  3  5  1  0  0  0  0
  3  6  1  0  0  0  0
  4  7  2  0  0  0  0
  6  8  2  0  0  0  0
  7  9  1  0  0  0  0
  9 10  2  0  0  0  0
  9 11  1  0  0  0  0
 11 12  1  0  0  0  0
 11 13  1  0  0  0  0
 12 14  1  0  0  0  0
 13 15  1  0  0  0  0
 14 16  1  0  0  0  0
 16 17  1  0  0  0  0
 16 18  1  0  0  0  0
 18 19  1  0  0  0  0
 19 20  1  0  0  0  0
 20 21  1  0  0  0  0
 21 22  1  0  0  0  0
 22 23  1  0  0  0  0
 23 24  2  0  0  0  0
 23 25  1  0  0  0  0
 24 26  1  0  0  0  0
 25 27  2  0  0  0  0
 26 28  1  0  0  0  0
 26 29  2  0  0  0  0
  7  8  1  0  0  0  0
 15 16  1  0  0  0  0
 27 29  1  0  0  0  0
  4 30  1  0  0  0  0
  6 31  1  0  0  0  0
  8 32  1  0  0  0  0
 12 33  1  0  0  0  0
 12 34  1  0  0  0  0
 13 35  1  0  0  0  0
 13 36  1  0  0  0  0
 14 37  1  0  0  0  0
 14 38  1  0  0  0  0
 15 39  1  0  0  0  0
 15 40  1  0  0  0  0
 18 41  1  0  0  0  0
 18 42  1  0  0  0  0
 19 43  1  0  0  0  0
 20 44  1  0  0  0  0
 20 45  1  0  0  0  0
 21 46  1  0  0  0  0
 21 47  1  0  0  0  0
 24 48  1  0  0  0  0
 25 49  1  0  0  0  0
 27 50  1  0  0  0  0
 29 51  1  0  0  0  0
M  END
>  <Molecule ChEMBL ID>
CHEMBL4752833

>  <Molecule Name>


>  <Molecule Max Phase>
None

>  <Molecular Weight>
443.32

>  <#RO5 Violations>
0

>  <AlogP>
4.75

>  <Compound Key>
30

>  <Smiles>
O=C(c1ccc(Cl)c(Cl)c1)N1CCC(F)(CNCCOc2cccc(F)c2)CC1

>  <Standard Type>
Ki

>  <Standard Relation>
'='

>  <Standard Value>
0.02042

>  <Standard Units>
nM

>  <pChEMBL Value>
10.69

>  <Data Validity Comment>


>  <Comment>


>  <Uo Units>
UO_0000065

>  <Ligand Efficiency BEI>
24.11

>  <Ligand Efficiency LE>
0.50

>  <Ligand Efficiency LLE>
5.94

>  <Ligand Efficiency SEI>
25.72

>  <Potential Duplicate>
0

>  <Assay ChEMBL ID>
CHEMBL4670397

>  <Assay Description>
Displacement of [3H]8-OH-DPAT from human 5-HT1A receptor stably expressed in CHO-K1 cell membranes measured after 60 mins by Microbeta2 scintillation counting method

>  <Assay Type>
B

>  <BAO Format ID>
BAO_0000219

>  <BAO Label>
cell-based format

>  <Assay Organism>
Homo sapiens

>  <Assay Tissue ChEMBL ID>
None

>  <Assay Tissue Name>
None

>  <Assay Cell Type>
CHO-K1

>  <Assay Subcellular Fraction>
None

>  <Assay Parameters>


>  <Assay Variant Accession>


>  <Assay Variant Mutation>


>  <Target ChEMBL ID>
CHEMBL214

>  <Target Name>
Serotonin 1a (5-HT1a) receptor

>  <Target Organism>
Homo sapiens

>  <SmilesFragFp 3>


>  <Target Type>
SINGLE PROTEIN

>  <Document ChEMBL ID>
CHEMBL4665789

>  <Source ID>
1

>  <Source Description>
Scientific Literature

>  <Document Journal>
J Med Chem

>  <Document Year>
2020

>  <Cell ChEMBL ID>
None

>  <SmilesFragFp 4>


>  <Properties>
TIME = 1.0 hr

>  <Action Type>
AGONIST

>  <Row-ID>
4308

>  <Neighbor Similarity FragFp 95%>
0.9907; 0.97727; 0.9907; 0.97706; 1; 1; 1; 0.99078; 1; 0.9907; 1; 0.98174; 1; 0.97706

>  <Neighbor Count>
14

>  <Neighbor>
5820; 5184; 5182; 5183; 5036; 5035; 5018; 5037; 4547; 941; 2302; 2305; 2306; 2678

>  <Neighbor Analysis X>
0.36944258

>  <Neighbor Analysis Y>
-0.18222411

>  <Row-ID 2>
4308

>  <Neighbor Similarity FragFp 95% 2>
0.9907; 0.97727; 0.97706; 0.9907; 0.99078; 1; 1; 1; 1; 0.9907; 1; 0.98174; 1; 0.97706

>  <Neighbor Count 2>
14

>  <Neighbor 2>
5820; 5184; 5183; 5182; 5037; 5036; 5035; 5018; 4547; 941; 2302; 2305; 2306; 2678

>  <Neighbor Analysis X 2>
0.45179984

>  <Neighbor Analysis Y 2>
-0.34281144

>  <SALI pChEMBL Value/FragFp>
51.6; 49.72; 25.724; 51.6; 17.36; 0; 0; 0; 0; 15.05; 0; 12.045; 0; 99.408

>  <MMFF94 Energy>


>  <MMFF94 Energy 2>
67.107

$$$$
CHEMBL4797752
Actelion Java MolfileCreator 1.0

 51 53  0  0  0  0  0  0  0  0999 V2000
    2.1933   -8.0597    1.8681 Cl  0  0  0  0  0  0  0  0  0  0  0  0
    1.5790   -6.5208    2.3343 C   0  0  0  0  0  0  0  0  0  0  0  0
    0.2511   -6.3797    2.7416 C   0  0  0  0  0  0  0  0  0  0  0  0
    2.4194   -5.4097    2.3024 C   0  0  0  0  0  0  0  0  0  0  0  0
   -0.5705   -7.4390    2.7756 F   0  0  0  0  0  0  0  0  0  0  0  0
   -0.2497   -5.1369    3.1270 C   0  0  0  0  0  0  0  0  0  0  0  0
    1.9097   -4.1600    2.6680 C   0  0  0  0  0  0  0  0  0  0  0  0
    0.5836   -4.0189    3.0979 C   0  0  0  0  0  0  0  0  0  0  0  0
    2.8133   -2.9950    2.6644 C   0  0  0  0  0  0  0  0  0  0  0  0
    3.7353   -3.0072    3.4746 O   0  0  0  0  0  0  0  0  0  0  0  0
    2.5715   -1.9600    1.7691 N   0  0  0  0  0  0  0  0  0  0  0  0
    1.6125   -1.9831    0.6661 C   0  0  0  0  0  0  0  0  0  0  0  0
    3.4266   -0.7790    1.8045 C   0  0  0  0  0  0  0  0  0  0  0  0
    0.7077   -0.7575    0.7215 C   0  0  0  0  0  0  0  0  0  0  0  0
    2.5813    0.4862    1.8859 C   0  0  0  0  0  0  0  0  0  0  0  0
    1.5374    0.5327    0.7608 C   0  0  0  0  0  0  0  0  0  0  0  0
    2.2213    0.6230   -0.4218 F   0  0  0  0  0  0  0  0  0  0  0  0
    0.6637    1.8051    0.9146 C   0  0  0  0  0  0  0  0  0  0  0  0
   -0.3787    1.9565   -0.1097 N   0  0  0  0  0  0  0  0  0  0  0  0
   -1.0760    3.2447    0.0148 C   0  0  0  0  0  0  0  0  0  0  0  0
   -2.2217    3.3909   -1.0023 C   0  0  0  0  0  0  0  0  0  0  0  0
   -1.6787    3.5016   -2.3182 O   0  0  0  0  0  0  0  0  0  0  0  0
   -2.5624    3.5982   -3.3557 C   0  0  0  0  0  0  0  0  0  0  0  0
   -3.9516    3.6841   -3.2480 C   0  0  0  0  0  0  0  0  0  0  0  0
   -1.9708    3.6154   -4.6226 C   0  0  0  0  0  0  0  0  0  0  0  0
   -4.7399    3.7824   -4.4003 C   0  0  0  0  0  0  0  0  0  0  0  0
   -2.7545    3.7132   -5.7744 C   0  0  0  0  0  0  0  0  0  0  0  0
   -4.1387    3.7960   -5.6574 C   0  0  0  0  0  0  0  0  0  0  0  0
   -5.1129    3.9168   -7.0698 Cl  0  0  0  0  0  0  0  0  0  0  0  0
    3.4602   -5.5071    2.0036 H   0  0  0  0  0  0  0  0  0  0  0  0
   -1.2818   -5.0541    3.4546 H   0  0  0  0  0  0  0  0  0  0  0  0
    0.2092   -3.0494    3.4169 H   0  0  0  0  0  0  0  0  0  0  0  0
    2.1902   -1.9908   -0.2663 H   0  0  0  0  0  0  0  0  0  0  0  0
    1.0098   -2.8933    0.6652 H   0  0  0  0  0  0  0  0  0  0  0  0
    4.1148   -0.8135    2.6551 H   0  0  0  0  0  0  0  0  0  0  0  0
    4.0357   -0.7821    0.8928 H   0  0  0  0  0  0  0  0  0  0  0  0
    0.0624   -0.7736   -0.1634 H   0  0  0  0  0  0  0  0  0  0  0  0
    0.0654   -0.8145    1.6091 H   0  0  0  0  0  0  0  0  0  0  0  0
    3.2439    1.3569    1.8208 H   0  0  0  0  0  0  0  0  0  0  0  0
    2.0783    0.5219    2.8606 H   0  0  0  0  0  0  0  0  0  0  0  0
    1.3306    2.6747    0.8603 H   0  0  0  0  0  0  0  0  0  0  0  0
    0.1942    1.8038    1.9062 H   0  0  0  0  0  0  0  0  0  0  0  0
   -1.0471    1.1906   -0.0705 H   0  0  0  0  0  0  0  0  0  0  0  0
   -1.4966    3.3379    1.0229 H   0  0  0  0  0  0  0  0  0  0  0  0
   -0.3578    4.0581   -0.1410 H   0  0  0  0  0  0  0  0  0  0  0  0
   -2.8908    2.5242   -0.9319 H   0  0  0  0  0  0  0  0  0  0  0  0
   -2.7789    4.3041   -0.7602 H   0  0  0  0  0  0  0  0  0  0  0  0
   -4.4532    3.6807   -2.2864 H   0  0  0  0  0  0  0  0  0  0  0  0
   -0.8885    3.5494   -4.7104 H   0  0  0  0  0  0  0  0  0  0  0  0
   -5.8208    3.8493   -4.3089 H   0  0  0  0  0  0  0  0  0  0  0  0
   -2.2788    3.7236   -6.7508 H   0  0  0  0  0  0  0  0  0  0  0  0
  1  2  1  0  0  0  0
  2  3  2  0  0  0  0
  2  4  1  0  0  0  0
  3  5  1  0  0  0  0
  3  6  1  0  0  0  0
  4  7  2  0  0  0  0
  6  8  2  0  0  0  0
  7  9  1  0  0  0  0
  9 10  2  0  0  0  0
  9 11  1  0  0  0  0
 11 12  1  0  0  0  0
 11 13  1  0  0  0  0
 12 14  1  0  0  0  0
 13 15  1  0  0  0  0
 14 16  1  0  0  0  0
 16 17  1  0  0  0  0
 16 18  1  0  0  0  0
 18 19  1  0  0  0  0
 19 20  1  0  0  0  0
 20 21  1  0  0  0  0
 21 22  1  0  0  0  0
 22 23  1  0  0  0  0
 23 24  2  0  0  0  0
 23 25  1  0  0  0  0
 24 26  1  0  0  0  0
 25 27  2  0  0  0  0
 26 28  2  0  0  0  0
 28 29  1  0  0  0  0
  7  8  1  0  0  0  0
 15 16  1  0  0  0  0
 27 28  1  0  0  0  0
  4 30  1  0  0  0  0
  6 31  1  0  0  0  0
  8 32  1  0  0  0  0
 12 33  1  0  0  0  0
 12 34  1  0  0  0  0
 13 35  1  0  0  0  0
 13 36  1  0  0  0  0
 14 37  1  0  0  0  0
 14 38  1  0  0  0  0
 15 39  1  0  0  0  0
 15 40  1  0  0  0  0
 18 41  1  0  0  0  0
 18 42  1  0  0  0  0
 19 43  1  0  0  0  0
 20 44  1  0  0  0  0
 20 45  1  0  0  0  0
 21 46  1  0  0  0  0
 21 47  1  0  0  0  0
 24 48  1  0  0  0  0
 25 49  1  0  0  0  0
 26 50  1  0  0  0  0
 27 51  1  0  0  0  0
M  END
>  <Molecule ChEMBL ID>
CHEMBL4797752

>  <Molecule Name>


>  <Molecule Max Phase>
None

>  <Molecular Weight>
443.32

>  <#RO5 Violations>
0

>  <AlogP>
4.75

>  <Compound Key>
35

>  <Smiles>
O=C(c1ccc(F)c(Cl)c1)N1CCC(F)(CNCCOc2ccc(Cl)cc2)CC1

>  <Standard Type>
Ki

>  <Standard Relation>
'='

>  <Standard Value>
3.89

>  <Standard Units>
nM

>  <pChEMBL Value>
8.41

>  <Data Validity Comment>


>  <Comment>


>  <Uo Units>
UO_0000065

>  <Ligand Efficiency BEI>
18.97

>  <Ligand Efficiency LE>
0.40

>  <Ligand Efficiency LLE>
3.66

>  <Ligand Efficiency SEI>
20.23

>  <Potential Duplicate>
0

>  <Assay ChEMBL ID>
CHEMBL4670397

>  <Assay Description>
Displacement of [3H]8-OH-DPAT from human 5-HT1A receptor stably expressed in CHO-K1 cell membranes measured after 60 mins by Microbeta2 scintillation counting method

>  <Assay Type>
B

>  <BAO Format ID>
BAO_0000219

>  <BAO Label>
cell-based format

>  <Assay Organism>
Homo sapiens

>  <Assay Tissue ChEMBL ID>
None

>  <Assay Tissue Name>
None

>  <Assay Cell Type>
CHO-K1

>  <Assay Subcellular Fraction>
None

>  <Assay Parameters>


>  <Assay Variant Accession>


>  <Assay Variant Mutation>


>  <Target ChEMBL ID>
CHEMBL214

>  <Target Name>
Serotonin 1a (5-HT1a) receptor

>  <Target Organism>
Homo sapiens

>  <SmilesFragFp 3>


>  <Target Type>
SINGLE PROTEIN

>  <Document ChEMBL ID>
CHEMBL4665789

>  <Source ID>
1

>  <Source Description>
Scientific Literature

>  <Document Journal>
J Med Chem

>  <Document Year>
2020

>  <Cell ChEMBL ID>
None

>  <SmilesFragFp 4>


>  <Properties>
TIME = 1.0 hr

>  <Action Type>
AGONIST

>  <Row-ID>
2678

>  <Neighbor Similarity FragFp 95%>
0.98611; 0.97706; 0.99539; 0.98611; 1; 0.97706; 0.97706; 0.97706; 0.97706; 0.97706; 0.98611; 0.97706; 0.97706; 0.97706; 0.99539

>  <Neighbor Count>
15

>  <Neighbor>
5820; 5745; 5462; 5182; 5183; 5036; 5035; 5018; 4547; 4308; 941; 942; 2302; 2306; 2674

>  <Neighbor Analysis X>
0.34864208

>  <Neighbor Analysis Y>
-0.22092664

>  <Row-ID 2>
2678

>  <Neighbor Similarity FragFp 95% 2>
0.98611; 0.97706; 0.99539; 1; 0.98611; 0.97706; 0.97706; 0.97706; 0.97706; 0.97706; 0.98611; 0.97706; 0.97706; 0.97706; 0.99539

>  <Neighbor Count 2>
15

>  <Neighbor 2>
5820; 5745; 5462; 5183; 5182; 5036; 5035; 5018; 4547; 4308; 941; 942; 2302; 2306; 2674

>  <Neighbor Analysis X 2>
0.4295139

>  <Neighbor Analysis Y 2>
-0.2983454

>  <SALI pChEMBL Value/FragFp>
129.6; 23.98; 49.91; 0; 129.6; 95.484; 83.276; 78.916; 103.33; 99.408; 174.24; 0.43601; 91.124; 62.784; 108.5

>  <MMFF94 Energy>


>  <MMFF94 Energy 2>
74.37

$$$$
CHEMBL4747425
Actelion Java MolfileCreator 1.0

 51 53  0  0  0  0  0  0  0  0999 V2000
    1.6965   -7.3672   -1.5348 Cl  0  0  0  0  0  0  0  0  0  0  0  0
    1.6881   -6.5473   -0.0211 C   0  0  0  0  0  0  0  0  0  0  0  0
    1.0206   -7.0898    1.0782 C   0  0  0  0  0  0  0  0  0  0  0  0
    2.3569   -5.3300    0.0995 C   0  0  0  0  0  0  0  0  0  0  0  0
    0.3715   -8.2588    0.9755 F   0  0  0  0  0  0  0  0  0  0  0  0
    1.0193   -6.4317    2.3066 C   0  0  0  0  0  0  0  0  0  0  0  0
    2.3337   -4.6561    1.3265 C   0  0  0  0  0  0  0  0  0  0  0  0
    1.6852   -5.2125    2.4361 C   0  0  0  0  0  0  0  0  0  0  0  0
    3.0652   -3.3832    1.4918 C   0  0  0  0  0  0  0  0  0  0  0  0
    3.9309   -3.3466    2.3623 O   0  0  0  0  0  0  0  0  0  0  0  0
    2.7493   -2.3079    0.6687 N   0  0  0  0  0  0  0  0  0  0  0  0
    1.5524   -2.1844   -0.1632 C   0  0  0  0  0  0  0  0  0  0  0  0
    3.5911   -1.1174    0.7058 C   0  0  0  0  0  0  0  0  0  0  0  0
    0.7011   -1.0065    0.3032 C   0  0  0  0  0  0  0  0  0  0  0  0
    2.7982    0.0800    1.2131 C   0  0  0  0  0  0  0  0  0  0  0  0
    1.5278    0.2833    0.3759 C   0  0  0  0  0  0  0  0  0  0  0  0
    1.9328    0.6002   -0.8942 F   0  0  0  0  0  0  0  0  0  0  0  0
    0.7121    1.4743    0.9394 C   0  0  0  0  0  0  0  0  0  0  0  0
   -0.5885    1.7452    0.3035 N   0  0  0  0  0  0  0  0  0  0  0  0
   -0.4473    2.1915   -1.0936 C   0  0  0  0  0  0  0  0  0  0  0  0
   -1.7773    2.7514   -1.6233 C   0  0  0  0  0  0  0  0  0  0  0  0
   -2.0945    3.9389   -0.8884 O   0  0  0  0  0  0  0  0  0  0  0  0
   -3.2490    4.5898   -1.2244 C   0  0  0  0  0  0  0  0  0  0  0  0
   -4.1587    4.1945   -2.2086 C   0  0  0  0  0  0  0  0  0  0  0  0
   -3.4973    5.7526   -0.4854 C   0  0  0  0  0  0  0  0  0  0  0  0
   -5.3053    4.9584   -2.4489 C   0  0  0  0  0  0  0  0  0  0  0  0
   -4.6412    6.5156   -0.7247 C   0  0  0  0  0  0  0  0  0  0  0  0
   -5.5357    6.1103   -1.7059 C   0  0  0  0  0  0  0  0  0  0  0  0
   -6.6353    6.8382   -1.9401 F   0  0  0  0  0  0  0  0  0  0  0  0
    2.8975   -4.9108   -0.7449 H   0  0  0  0  0  0  0  0  0  0  0  0
    0.5073   -6.8773    3.1544 H   0  0  0  0  0  0  0  0  0  0  0  0
    1.7071   -4.6998    3.3959 H   0  0  0  0  0  0  0  0  0  0  0  0
    1.8811   -2.0408   -1.1990 H   0  0  0  0  0  0  0  0  0  0  0  0
    0.9398   -3.0873   -0.1293 H   0  0  0  0  0  0  0  0  0  0  0  0
    4.4719   -1.2739    1.3367 H   0  0  0  0  0  0  0  0  0  0  0  0
    3.9525   -0.9373   -0.3137 H   0  0  0  0  0  0  0  0  0  0  0  0
   -0.1343   -0.8907   -0.3961 H   0  0  0  0  0  0  0  0  0  0  0  0
    0.2806   -1.2317    1.2916 H   0  0  0  0  0  0  0  0  0  0  0  0
    3.4319    0.9727    1.1582 H   0  0  0  0  0  0  0  0  0  0  0  0
    2.5324   -0.0782    2.2659 H   0  0  0  0  0  0  0  0  0  0  0  0
    1.3231    2.3850    0.8987 H   0  0  0  0  0  0  0  0  0  0  0  0
    0.5084    1.2832    2.0005 H   0  0  0  0  0  0  0  0  0  0  0  0
   -1.0526    2.5007    0.8165 H   0  0  0  0  0  0  0  0  0  0  0  0
    0.3143    2.9777   -1.1587 H   0  0  0  0  0  0  0  0  0  0  0  0
   -0.1489    1.3512   -1.7277 H   0  0  0  0  0  0  0  0  0  0  0  0
   -1.6550    2.9947   -2.6856 H   0  0  0  0  0  0  0  0  0  0  0  0
   -2.5689    2.0015   -1.5014 H   0  0  0  0  0  0  0  0  0  0  0  0
   -4.0083    3.3005   -2.8041 H   0  0  0  0  0  0  0  0  0  0  0  0
   -2.7928    6.0653    0.2815 H   0  0  0  0  0  0  0  0  0  0  0  0
   -6.0194    4.6610   -3.2103 H   0  0  0  0  0  0  0  0  0  0  0  0
   -4.8370    7.4175   -0.1543 H   0  0  0  0  0  0  0  0  0  0  0  0
  1  2  1  0  0  0  0
  2  3  2  0  0  0  0
  2  4  1  0  0  0  0
  3  5  1  0  0  0  0
  3  6  1  0  0  0  0
  4  7  2  0  0  0  0
  6  8  2  0  0  0  0
  7  9  1  0  0  0  0
  9 10  2  0  0  0  0
  9 11  1  0  0  0  0
 11 12  1  0  0  0  0
 11 13  1  0  0  0  0
 12 14  1  0  0  0  0
 13 15  1  0  0  0  0
 14 16  1  0  0  0  0
 16 17  1  0  0  0  0
 16 18  1  0  0  0  0
 18 19  1  0  0  0  0
 19 20  1  0  0  0  0
 20 21  1  0  0  0  0
 21 22  1  0  0  0  0
 22 23  1  0  0  0  0
 23 24  2  0  0  0  0
 23 25  1  0  0  0  0
 24 26  1  0  0  0  0
 25 27  2  0  0  0  0
 26 28  2  0  0  0  0
 28 29  1  0  0  0  0
  7  8  1  0  0  0  0
 15 16  1  0  0  0  0
 27 28  1  0  0  0  0
  4 30  1  0  0  0  0
  6 31  1  0  0  0  0
  8 32  1  0  0  0  0
 12 33  1  0  0  0  0
 12 34  1  0  0  0  0
 13 35  1  0  0  0  0
 13 36  1  0  0  0  0
 14 37  1  0  0  0  0
 14 38  1  0  0  0  0
 15 39  1  0  0  0  0
 15 40  1  0  0  0  0
 18 41  1  0  0  0  0
 18 42  1  0  0  0  0
 19 43  1  0  0  0  0
 20 44  1  0  0  0  0
 20 45  1  0  0  0  0
 21 46  1  0  0  0  0
 21 47  1  0  0  0  0
 24 48  1  0  0  0  0
 25 49  1  0  0  0  0
 26 50  1  0  0  0  0
 27 51  1  0  0  0  0
M  END
>  <Molecule ChEMBL ID>
CHEMBL4747425

>  <Molecule Name>


>  <Molecule Max Phase>
None

>  <Molecular Weight>
426.87

>  <#RO5 Violations>
0

>  <AlogP>
4.23

>  <Compound Key>
31

>  <Smiles>
O=C(c1ccc(F)c(Cl)c1)N1CCC(F)(CNCCOc2ccc(F)cc2)CC1

>  <Standard Type>
Ki

>  <Standard Relation>
'='

>  <Standard Value>
0.07943

>  <Standard Units>
nM

>  <pChEMBL Value>
10.10

>  <Data Validity Comment>


>  <Comment>


>  <Uo Units>
UO_0000065

>  <Ligand Efficiency BEI>
23.66

>  <Ligand Efficiency LE>
0.48

>  <Ligand Efficiency LLE>
5.87

>  <Ligand Efficiency SEI>
24.30

>  <Potential Duplicate>
0

>  <Assay ChEMBL ID>
CHEMBL4670397

>  <Assay Description>
Displacement of [3H]8-OH-DPAT from human 5-HT1A receptor stably expressed in CHO-K1 cell membranes measured after 60 mins by Microbeta2 scintillation counting method

>  <Assay Type>
B

>  <BAO Format ID>
BAO_0000219

>  <BAO Label>
cell-based format

>  <Assay Organism>
Homo sapiens

>  <Assay Tissue ChEMBL ID>
None

>  <Assay Tissue Name>
None

>  <Assay Cell Type>
CHO-K1

>  <Assay Subcellular Fraction>
None

>  <Assay Parameters>


>  <Assay Variant Accession>


>  <Assay Variant Mutation>


>  <Target ChEMBL ID>
CHEMBL214

>  <Target Name>
Serotonin 1a (5-HT1a) receptor

>  <Target Organism>
Homo sapiens

>  <SmilesFragFp 3>


>  <Target Type>
SINGLE PROTEIN

>  <Document ChEMBL ID>
CHEMBL4665789

>  <Source ID>
1

>  <Source Description>
Scientific Literature

>  <Document Journal>
J Med Chem

>  <Document Year>
2020

>  <Cell ChEMBL ID>
None

>  <SmilesFragFp 4>


>  <Properties>
TIME = 1.0 hr

>  <Action Type>
AGONIST

>  <Row-ID>
5183

>  <Neighbor Similarity FragFp 95%>
0.98611; 0.97706; 0.99539; 0.98611; 0.97706; 0.97706; 0.97706; 0.99539; 1; 0.97706; 0.97706; 0.97706; 0.97706; 0.97706; 0.98611

>  <Neighbor Count>
15

>  <Neighbor>
5820; 5745; 5462; 941; 942; 2302; 2306; 2674; 2678; 4308; 4547; 5018; 5035; 5036; 5182

>  <Neighbor Analysis X>
0.37053648

>  <Neighbor Analysis Y>
-0.20790836

>  <Row-ID 2>
5183

>  <Neighbor Similarity FragFp 95% 2>
0.98611; 0.97706; 0.99539; 0.98611; 0.97706; 0.97706; 0.97706; 0.99539; 1; 0.97706; 0.97706; 0.97706; 0.97706; 0.97706; 0.98611

>  <Neighbor Count 2>
15

>  <Neighbor 2>
5820; 5745; 5462; 941; 942; 2302; 2306; 2674; 2678; 4308; 4547; 5018; 5035; 5036; 5182

>  <Neighbor Analysis X 2>
0.44488376

>  <Neighbor Analysis Y 2>
-0.2785138

>  <SALI pChEMBL Value/FragFp>
7.92; 97.664; 416.64; 52.56; 73.248; 17.44; 10.9; 258.23; 0; 25.724; 29.648; 5.232; 9.592; 21.8; 7.92

>  <MMFF94 Energy>


>  <MMFF94 Energy 2>
67.009

$$$$
CHEMBL4760621
Actelion Java MolfileCreator 1.0

 54 56  0  0  0  0  0  0  0  0999 V2000
    7.9695   -5.6300    2.7316 Cl  0  0  0  0  0  0  0  0  0  0  0  0
    6.6391   -4.5628    2.9647 C   0  0  0  0  0  0  0  0  0  0  0  0
    6.7165   -3.5234    3.8937 C   0  0  0  0  0  0  0  0  0  0  0  0
    5.4776   -4.7428    2.2160 C   0  0  0  0  0  0  0  0  0  0  0  0
    7.8283   -3.3360    4.6199 F   0  0  0  0  0  0  0  0  0  0  0  0
    5.6394   -2.6603    4.0913 C   0  0  0  0  0  0  0  0  0  0  0  0
    4.4064   -3.8627    2.3993 C   0  0  0  0  0  0  0  0  0  0  0  0
    4.4728   -2.8321    3.3462 C   0  0  0  0  0  0  0  0  0  0  0  0
    3.1685   -4.0796    1.6279 C   0  0  0  0  0  0  0  0  0  0  0  0
    2.5443   -5.1105    1.8610 O   0  0  0  0  0  0  0  0  0  0  0  0
    2.7760   -3.1191    0.7030 N   0  0  0  0  0  0  0  0  0  0  0  0
    1.5188   -3.2994   -0.0142 C   0  0  0  0  0  0  0  0  0  0  0  0
    3.5764   -1.9827    0.2510 C   0  0  0  0  0  0  0  0  0  0  0  0
    0.6574   -2.0448    0.0857 C   0  0  0  0  0  0  0  0  0  0  0  0
    2.7781   -0.6921    0.3824 C   0  0  0  0  0  0  0  0  0  0  0  0
    1.4359   -0.7993   -0.3569 C   0  0  0  0  0  0  0  0  0  0  0  0
    1.7204   -0.9339   -1.6895 F   0  0  0  0  0  0  0  0  0  0  0  0
    0.6275    0.5103   -0.1630 C   0  0  0  0  0  0  0  0  0  0  0  0
   -0.6618    0.5415   -0.8716 N   0  0  0  0  0  0  0  0  0  0  0  0
   -1.3420    1.8267   -0.6732 C   0  0  0  0  0  0  0  0  0  0  0  0
   -2.6541    1.9016   -1.4658 C   0  0  0  0  0  0  0  0  0  0  0  0
   -3.2837    3.1484   -1.1613 O   0  0  0  0  0  0  0  0  0  0  0  0
   -4.4823    3.4035   -1.7698 C   0  0  0  0  0  0  0  0  0  0  0  0
   -5.0699    4.6219   -1.4131 C   0  0  0  0  0  0  0  0  0  0  0  0
   -5.1339    2.5726   -2.6807 C   0  0  0  0  0  0  0  0  0  0  0  0
   -6.2960    5.0223   -1.9615 C   0  0  0  0  0  0  0  0  0  0  0  0
   -6.3639    2.9558   -3.2222 C   0  0  0  0  0  0  0  0  0  0  0  0
   -6.9454    4.1713   -2.8607 C   0  0  0  0  0  0  0  0  0  0  0  0
   -6.9285    6.3160   -1.5429 C   0  0  0  0  0  0  0  0  0  0  0  0
    5.3965   -5.5580    1.5013 H   0  0  0  0  0  0  0  0  0  0  0  0
    5.7168   -1.8682    4.8303 H   0  0  0  0  0  0  0  0  0  0  0  0
    3.6196   -2.1781    3.5084 H   0  0  0  0  0  0  0  0  0  0  0  0
    1.7629   -3.5196   -1.0604 H   0  0  0  0  0  0  0  0  0  0  0  0
    0.9601   -4.1565    0.3755 H   0  0  0  0  0  0  0  0  0  0  0  0
    4.5173   -1.8992    0.7982 H   0  0  0  0  0  0  0  0  0  0  0  0
    3.8401   -2.1666   -0.7977 H   0  0  0  0  0  0  0  0  0  0  0  0
   -0.2273   -2.1910   -0.5434 H   0  0  0  0  0  0  0  0  0  0  0  0
    0.3170   -1.9191    1.1212 H   0  0  0  0  0  0  0  0  0  0  0  0
    3.3706    0.1315   -0.0325 H   0  0  0  0  0  0  0  0  0  0  0  0
    2.6038   -0.4775    1.4443 H   0  0  0  0  0  0  0  0  0  0  0  0
    1.2413    1.3407   -0.5342 H   0  0  0  0  0  0  0  0  0  0  0  0
    0.4566    0.6719    0.9089 H   0  0  0  0  0  0  0  0  0  0  0  0
   -1.2633   -0.2129   -0.5430 H   0  0  0  0  0  0  0  0  0  0  0  0
   -1.5561    1.9850    0.3914 H   0  0  0  0  0  0  0  0  0  0  0  0
   -0.6972    2.6560   -0.9903 H   0  0  0  0  0  0  0  0  0  0  0  0
   -2.4341    1.8403   -2.5387 H   0  0  0  0  0  0  0  0  0  0  0  0
   -3.3083    1.0727   -1.1680 H   0  0  0  0  0  0  0  0  0  0  0  0
   -4.5594    5.2639   -0.6983 H   0  0  0  0  0  0  0  0  0  0  0  0
   -4.7158    1.6211   -2.9905 H   0  0  0  0  0  0  0  0  0  0  0  0
   -6.8713    2.3028   -3.9280 H   0  0  0  0  0  0  0  0  0  0  0  0
   -7.9064    4.4505   -3.2869 H   0  0  0  0  0  0  0  0  0  0  0  0
   -7.5540    6.1580   -0.6589 H   0  0  0  0  0  0  0  0  0  0  0  0
   -6.1654    7.0656   -1.3078 H   0  0  0  0  0  0  0  0  0  0  0  0
   -7.5490    6.7261   -2.3467 H   0  0  0  0  0  0  0  0  0  0  0  0
  1  2  1  0  0  0  0
  2  3  2  0  0  0  0
  2  4  1  0  0  0  0
  3  5  1  0  0  0  0
  3  6  1  0  0  0  0
  4  7  2  0  0  0  0
  6  8  2  0  0  0  0
  7  9  1  0  0  0  0
  9 10  2  0  0  0  0
  9 11  1  0  0  0  0
 11 12  1  0  0  0  0
 11 13  1  0  0  0  0
 12 14  1  0  0  0  0
 13 15  1  0  0  0  0
 14 16  1  0  0  0  0
 16 17  1  0  0  0  0
 16 18  1  0  0  0  0
 18 19  1  0  0  0  0
 19 20  1  0  0  0  0
 20 21  1  0  0  0  0
 21 22  1  0  0  0  0
 22 23  1  0  0  0  0
 23 24  2  0  0  0  0
 23 25  1  0  0  0  0
 24 26  1  0  0  0  0
 25 27  2  0  0  0  0
 26 28  2  0  0  0  0
 26 29  1  0  0  0  0
  7  8  1  0  0  0  0
 15 16  1  0  0  0  0
 27 28  1  0  0  0  0
  4 30  1  0  0  0  0
  6 31  1  0  0  0  0
  8 32  1  0  0  0  0
 12 33  1  0  0  0  0
 12 34  1  0  0  0  0
 13 35  1  0  0  0  0
 13 36  1  0  0  0  0
 14 37  1  0  0  0  0
 14 38  1  0  0  0  0
 15 39  1  0  0  0  0
 15 40  1  0  0  0  0
 18 41  1  0  0  0  0
 18 42  1  0  0  0  0
 19 43  1  0  0  0  0
 20 44  1  0  0  0  0
 20 45  1  0  0  0  0
 21 46  1  0  0  0  0
 21 47  1  0  0  0  0
 24 48  1  0  0  0  0
 25 49  1  0  0  0  0
 27 50  1  0  0  0  0
 28 51  1  0  0  0  0
 29 52  1  0  0  0  0
 29 53  1  0  0  0  0
 29 54  1  0  0  0  0
M  END
>  <Molecule ChEMBL ID>
CHEMBL4760621

>  <Molecule Name>


>  <Molecule Max Phase>
None

>  <Molecular Weight>
422.90

>  <#RO5 Violations>
0

>  <AlogP>
4.40

>  <Compound Key>
49

>  <Smiles>
Cc1cccc(OCCNCC2(F)CCN(C(=O)c3ccc(F)c(Cl)c3)CC2)c1

>  <Standard Type>
Ki

>  <Standard Relation>
'='

>  <Standard Value>
0.1413

>  <Standard Units>
nM

>  <pChEMBL Value>
9.85

>  <Data Validity Comment>


>  <Comment>


>  <Uo Units>
UO_0000065

>  <Ligand Efficiency BEI>
23.29

>  <Ligand Efficiency LE>
0.46

>  <Ligand Efficiency LLE>
5.45

>  <Ligand Efficiency SEI>
23.69

>  <Potential Duplicate>
0

>  <Assay ChEMBL ID>
CHEMBL4670397

>  <Assay Description>
Displacement of [3H]8-OH-DPAT from human 5-HT1A receptor stably expressed in CHO-K1 cell membranes measured after 60 mins by Microbeta2 scintillation counting method

>  <Assay Type>
B

>  <BAO Format ID>
BAO_0000219

>  <BAO Label>
cell-based format

>  <Assay Organism>
Homo sapiens

>  <Assay Tissue ChEMBL ID>
None

>  <Assay Tissue Name>
None

>  <Assay Cell Type>
CHO-K1

>  <Assay Subcellular Fraction>
None

>  <Assay Parameters>


>  <Assay Variant Accession>


>  <Assay Variant Mutation>


>  <Target ChEMBL ID>
CHEMBL214

>  <Target Name>
Serotonin 1a (5-HT1a) receptor

>  <Target Organism>
Homo sapiens

>  <SmilesFragFp 3>


>  <Target Type>
SINGLE PROTEIN

>  <Document ChEMBL ID>
CHEMBL4665789

>  <Source ID>
1

>  <Source Description>
Scientific Literature

>  <Document Journal>
J Med Chem

>  <Document Year>
2020

>  <Cell ChEMBL ID>
None

>  <SmilesFragFp 4>


>  <Properties>
TIME = 1.0 hr

>  <Action Type>
AGONIST

>  <Row-ID>
2306

>  <Neighbor Similarity FragFp 95%>
0.9907; 0.97727; 0.9907; 0.97706; 1; 1; 1; 0.99078; 1; 1; 0.97706; 0.9907; 1; 0.98174

>  <Neighbor Count>
14

>  <Neighbor>
5820; 5184; 5182; 5183; 5036; 5035; 5018; 5037; 4547; 4308; 2678; 941; 2302; 2305

>  <Neighbor Analysis X>
0.34927407

>  <Neighbor Analysis Y>
-0.17041306

>  <Row-ID 2>
2306

>  <Neighbor Similarity FragFp 95% 2>
0.9907; 0.97727; 0.97706; 0.9907; 0.99078; 1; 1; 1; 1; 1; 0.97706; 0.9907; 1; 0.98174

>  <Neighbor Count 2>
14

>  <Neighbor 2>
5820; 5184; 5183; 5182; 5037; 5036; 5035; 5018; 4547; 4308; 2678; 941; 2302; 2305

>  <Neighbor Analysis X 2>
0.4510558

>  <Neighbor Analysis Y 2>
-0.30116546

>  <SALI pChEMBL Value/FragFp>
38.7; 12.76; 10.9; 38.7; 73.78; 0; 0; 0; 0; 0; 62.784; 105.35; 0; 33.945

>  <MMFF94 Energy>


>  <MMFF94 Energy 2>
75.82

$$$$
CHEMBL45422
Actelion Java MolfileCreator 1.0

 54 56  0  0  0  0  0  0  0  0999 V2000
    3.0469   -1.2019    2.8864 Cl  0  0  0  0  0  0  0  0  0  0  0  0
    3.4735   -2.1455    1.5109 C   0  0  0  0  0  0  0  0  0  0  0  0
    4.7126   -2.7844    1.4412 C   0  0  0  0  0  0  0  0  0  0  0  0
    2.5678   -2.2649    0.4587 C   0  0  0  0  0  0  0  0  0  0  0  0
    5.5947   -2.6756    2.4456 F   0  0  0  0  0  0  0  0  0  0  0  0
    5.0576   -3.5518    0.3299 C   0  0  0  0  0  0  0  0  0  0  0  0
    2.9265   -3.0127   -0.6693 C   0  0  0  0  0  0  0  0  0  0  0  0
    4.1584   -3.6742   -0.7300 C   0  0  0  0  0  0  0  0  0  0  0  0
    1.9705   -3.1711   -1.7829 C   0  0  0  0  0  0  0  0  0  0  0  0
    1.5745   -4.3089   -2.0186 O   0  0  0  0  0  0  0  0  0  0  0  0
    1.5603   -2.0398   -2.4776 N   0  0  0  0  0  0  0  0  0  0  0  0
    0.4615   -2.1476   -3.4314 C   0  0  0  0  0  0  0  0  0  0  0  0
    2.1746   -0.7152   -2.4069 C   0  0  0  0  0  0  0  0  0  0  0  0
   -0.6371   -1.1479   -3.0811 C   0  0  0  0  0  0  0  0  0  0  0  0
    1.1349    0.3248   -2.0100 C   0  0  0  0  0  0  0  0  0  0  0  0
   -0.0712    0.2741   -2.9598 C   0  0  0  0  0  0  0  0  0  0  0  0
    0.3826    0.6404   -4.2037 F   0  0  0  0  0  0  0  0  0  0  0  0
   -1.1601    1.3013   -2.5688 C   0  0  0  0  0  0  0  0  0  0  0  0
   -1.7733    1.0581   -1.2630 N   0  0  0  0  0  0  0  0  0  0  0  0
   -2.7909    2.0701   -0.9392 C   0  0  0  0  0  0  0  0  0  0  0  0
   -3.0536    2.1125    0.5559 C   0  0  0  0  0  0  0  0  0  0  0  0
   -1.9704    1.9760    1.3709 N   0  0  0  0  0  0  0  0  0  0  0  0
   -4.3309    2.3377    1.0438 C   0  0  0  0  0  0  0  0  0  0  0  0
   -2.1451    2.0163    2.7096 C   0  0  0  0  0  0  0  0  0  0  0  0
   -4.5050    2.4076    2.4194 C   0  0  0  0  0  0  0  0  0  0  0  0
   -1.0316    1.8765    3.5235 N   0  0  0  0  0  0  0  0  0  0  0  0
   -3.4055    2.2551    3.2741 C   0  0  0  0  0  0  0  0  0  0  0  0
    0.2712    1.7455    2.9167 C   0  0  0  0  0  0  0  0  0  0  0  0
   -3.6069    2.3419    4.7595 C   0  0  0  0  0  0  0  0  0  0  0  0
    1.5904   -1.7930    0.5137 H   0  0  0  0  0  0  0  0  0  0  0  0
    6.0204   -4.0532    0.3010 H   0  0  0  0  0  0  0  0  0  0  0  0
    4.4092   -4.2837   -1.5957 H   0  0  0  0  0  0  0  0  0  0  0  0
    0.8655   -1.9486   -4.4310 H   0  0  0  0  0  0  0  0  0  0  0  0
    0.0448   -3.1598   -3.4421 H   0  0  0  0  0  0  0  0  0  0  0  0
    3.0197   -0.6921   -1.7156 H   0  0  0  0  0  0  0  0  0  0  0  0
    2.5805   -0.4911   -3.4010 H   0  0  0  0  0  0  0  0  0  0  0  0
   -1.4070   -1.1807   -3.8605 H   0  0  0  0  0  0  0  0  0  0  0  0
   -1.1044   -1.4518   -2.1364 H   0  0  0  0  0  0  0  0  0  0  0  0
    1.5965    1.3183   -2.0430 H   0  0  0  0  0  0  0  0  0  0  0  0
    0.8207    0.1359   -0.9773 H   0  0  0  0  0  0  0  0  0  0  0  0
   -1.9349    1.2926   -3.3461 H   0  0  0  0  0  0  0  0  0  0  0  0
   -0.7117    2.3030   -2.5956 H   0  0  0  0  0  0  0  0  0  0  0  0
   -1.0776    1.1274   -0.5128 H   0  0  0  0  0  0  0  0  0  0  0  0
   -3.7128    1.8335   -1.4819 H   0  0  0  0  0  0  0  0  0  0  0  0
   -2.4620    3.0743   -1.2333 H   0  0  0  0  0  0  0  0  0  0  0  0
   -5.1765    2.4578    0.3754 H   0  0  0  0  0  0  0  0  0  0  0  0
   -5.4986    2.5856    2.8230 H   0  0  0  0  0  0  0  0  0  0  0  0
   -1.1728    1.4245    4.4152 H   0  0  0  0  0  0  0  0  0  0  0  0
    0.5209    2.6258    2.3147 H   0  0  0  0  0  0  0  0  0  0  0  0
    0.3320    0.8490    2.2906 H   0  0  0  0  0  0  0  0  0  0  0  0
    1.0300    1.6563    3.7006 H   0  0  0  0  0  0  0  0  0  0  0  0
   -4.6319    2.6362    5.0098 H   0  0  0  0  0  0  0  0  0  0  0  0
   -3.4165    1.3696    5.2251 H   0  0  0  0  0  0  0  0  0  0  0  0
   -2.9389    3.0925    5.1946 H   0  0  0  0  0  0  0  0  0  0  0  0
  1  2  1  0  0  0  0
  2  3  2  0  0  0  0
  2  4  1  0  0  0  0
  3  5  1  0  0  0  0
  3  6  1  0  0  0  0
  4  7  2  0  0  0  0
  6  8  2  0  0  0  0
  7  9  1  0  0  0  0
  9 10  2  0  0  0  0
  9 11  1  0  0  0  0
 11 12  1  0  0  0  0
 11 13  1  0  0  0  0
 12 14  1  0  0  0  0
 13 15  1  0  0  0  0
 14 16  1  0  0  0  0
 16 17  1  0  0  0  0
 16 18  1  0  0  0  0
 18 19  1  0  0  0  0
 19 20  1  0  0  0  0
 20 21  1  0  0  0  0
 21 22  2  0  0  0  0
 21 23  1  0  0  0  0
 22 24  1  0  0  0  0
 23 25  2  0  0  0  0
 24 26  1  0  0  0  0
 24 27  2  0  0  0  0
 26 28  1  0  0  0  0
 27 29  1  0  0  0  0
  7  8  1  0  0  0  0
 15 16  1  0  0  0  0
 25 27  1  0  0  0  0
  4 30  1  0  0  0  0
  6 31  1  0  0  0  0
  8 32  1  0  0  0  0
 12 33  1  0  0  0  0
 12 34  1  0  0  0  0
 13 35  1  0  0  0  0
 13 36  1  0  0  0  0
 14 37  1  0  0  0  0
 14 38  1  0  0  0  0
 15 39  1  0  0  0  0
 15 40  1  0  0  0  0
 18 41  1  0  0  0  0
 18 42  1  0  0  0  0
 19 43  1  0  0  0  0
 20 44  1  0  0  0  0
 20 45  1  0  0  0  0
 23 46  1  0  0  0  0
 25 47  1  0  0  0  0
 26 48  1  0  0  0  0
 28 49  1  0  0  0  0
 28 50  1  0  0  0  0
 28 51  1  0  0  0  0
 29 52  1  0  0  0  0
 29 53  1  0  0  0  0
 29 54  1  0  0  0  0
M  END
>  <Molecule ChEMBL ID>
CHEMBL45422

>  <Molecule Name>


>  <Molecule Max Phase>
None

>  <Molecular Weight>
422.91

>  <#RO5 Violations>
0

>  <AlogP>
3.96

>  <Compound Key>
F13714, 57

>  <Smiles>
CNc1nc(CNCC2(F)CCN(C(=O)c3ccc(F)c(Cl)c3)CC2)ccc1C

>  <Standard Type>
Ki

>  <Standard Relation>
'='

>  <Standard Value>
0.04

>  <Standard Units>
nM

>  <pChEMBL Value>
10.40

>  <Data Validity Comment>


>  <Comment>


>  <Uo Units>
UO_0000065

>  <Ligand Efficiency BEI>
24.59

>  <Ligand Efficiency LE>
0.49

>  <Ligand Efficiency LLE>
6.44

>  <Ligand Efficiency SEI>
18.16

>  <Potential Duplicate>
0

>  <Assay ChEMBL ID>
CHEMBL5109918

>  <Assay Description>
Binding affinity to 5-HT1A receptor (unknown origin) assessed as inhibition constant by scintillation spectroscopic analysis

>  <Assay Type>
B

>  <BAO Format ID>
BAO_0000357

>  <BAO Label>
single protein format

>  <Assay Organism>
Homo sapiens

>  <Assay Tissue ChEMBL ID>
None

>  <Assay Tissue Name>
None

>  <Assay Cell Type>
None

>  <Assay Subcellular Fraction>
None

>  <Assay Parameters>


>  <Assay Variant Accession>


>  <Assay Variant Mutation>


>  <Target ChEMBL ID>
CHEMBL214

>  <Target Name>
Serotonin 1a (5-HT1a) receptor

>  <Target Organism>
Homo sapiens

>  <SmilesFragFp 3>


>  <Target Type>
SINGLE PROTEIN

>  <Document ChEMBL ID>
CHEMBL5108009

>  <Source ID>
1

>  <Source Description>
Scientific Literature

>  <Document Journal>
J Med Chem

>  <Document Year>
2022

>  <Cell ChEMBL ID>
None

>  <SmilesFragFp 4>


>  <Properties>


>  <Action Type>
AGONIST

>  <Row-ID>
5842

>  <Neighbor Similarity FragFp 95%>
0.97525; 0.97525; 0.97525; 0.97525

>  <Neighbor Count>
4

>  <Neighbor>
5937; 2303; 5662; 5841

>  <Neighbor Analysis X>
-0.3734373

>  <Neighbor Analysis Y>
-0.514451

>  <Row-ID 2>
5842

>  <Neighbor Similarity FragFp 95% 2>
0.97525; 0.97525; 0.97525; 0.97525

>  <Neighbor Count 2>
4

>  <Neighbor 2>
5937; 2303; 5662; 5841

>  <Neighbor Analysis X 2>
0.5752207

>  <Neighbor Analysis Y 2>
0.6180347

>  <SALI pChEMBL Value/FragFp>
70.7; 70.296; 70.296; 56.56

>  <MMFF94 Energy>


>  <MMFF94 Energy 2>
29.969

$$$$
CHEMBL4746734
Actelion Java MolfileCreator 1.0

 52 54  0  0  0  0  0  0  0  0999 V2000
    7.5008   -4.2694    0.9655 Cl  0  0  0  0  0  0  0  0  0  0  0  0
    6.0420   -3.3849    1.1947 C   0  0  0  0  0  0  0  0  0  0  0  0
    5.8725   -2.5734    2.3183 C   0  0  0  0  0  0  0  0  0  0  0  0
    5.0252   -3.4833    0.2470 C   0  0  0  0  0  0  0  0  0  0  0  0
    6.8428   -2.4666    3.2379 F   0  0  0  0  0  0  0  0  0  0  0  0
    4.6903   -1.8603    2.5126 C   0  0  0  0  0  0  0  0  0  0  0  0
    3.8488   -2.7499    0.4316 C   0  0  0  0  0  0  0  0  0  0  0  0
    3.6671   -1.9522    1.5692 C   0  0  0  0  0  0  0  0  0  0  0  0
    2.7633   -2.8856   -0.5575 C   0  0  0  0  0  0  0  0  0  0  0  0
    2.2450   -3.9935   -0.6606 O   0  0  0  0  0  0  0  0  0  0  0  0
    2.3851   -1.7711   -1.2968 N   0  0  0  0  0  0  0  0  0  0  0  0
    1.2573   -1.8804   -2.2161 C   0  0  0  0  0  0  0  0  0  0  0  0
    3.1086   -0.5034   -1.3700 C   0  0  0  0  0  0  0  0  0  0  0  0
    0.2616   -0.7483   -1.9863 C   0  0  0  0  0  0  0  0  0  0  0  0
    2.1657    0.6591   -1.0895 C   0  0  0  0  0  0  0  0  0  0  0  0
    0.9533    0.6201   -2.0319 C   0  0  0  0  0  0  0  0  0  0  0  0
    1.4283    0.8116   -3.3019 F   0  0  0  0  0  0  0  0  0  0  0  0
   -0.0086    1.7888   -1.6911 C   0  0  0  0  0  0  0  0  0  0  0  0
   -1.2022    1.8531   -2.5458 N   0  0  0  0  0  0  0  0  0  0  0  0
   -2.0346    3.0372   -2.2802 C   0  0  0  0  0  0  0  0  0  0  0  0
   -2.7579    3.0247   -0.9242 C   0  0  0  0  0  0  0  0  0  0  0  0
   -3.4764    1.7959   -0.8067 O   0  0  0  0  0  0  0  0  0  0  0  0
   -4.1180    1.6560    0.4030 C   0  0  0  0  0  0  0  0  0  0  0  0
   -4.0996    2.6614    1.2937 N   0  0  0  0  0  0  0  0  0  0  0  0
   -4.7198    0.4724    0.5782 N   0  0  0  0  0  0  0  0  0  0  0  0
   -4.7616    2.4378    2.4456 C   0  0  0  0  0  0  0  0  0  0  0  0
   -5.3649    0.3044    1.7477 C   0  0  0  0  0  0  0  0  0  0  0  0
   -5.4350    1.2684    2.7315 C   0  0  0  0  0  0  0  0  0  0  0  0
   -6.1276    1.0385    4.0296 C   0  0  0  0  0  0  0  0  0  0  0  0
    5.1357   -4.1243   -0.6241 H   0  0  0  0  0  0  0  0  0  0  0  0
    4.5747   -1.2476    3.4017 H   0  0  0  0  0  0  0  0  0  0  0  0
    2.7326   -1.4179    1.7224 H   0  0  0  0  0  0  0  0  0  0  0  0
    1.6574   -1.8432   -3.2363 H   0  0  0  0  0  0  0  0  0  0  0  0
    0.7473   -2.8425   -2.1025 H   0  0  0  0  0  0  0  0  0  0  0  0
    3.9560   -0.4736   -0.6825 H   0  0  0  0  0  0  0  0  0  0  0  0
    3.5254   -0.4246   -2.3815 H   0  0  0  0  0  0  0  0  0  0  0  0
   -0.5118   -0.8158   -2.7591 H   0  0  0  0  0  0  0  0  0  0  0  0
   -0.2243   -0.8839   -1.0118 H   0  0  0  0  0  0  0  0  0  0  0  0
    2.7151    1.5981   -1.2233 H   0  0  0  0  0  0  0  0  0  0  0  0
    1.8302    0.6132   -0.0458 H   0  0  0  0  0  0  0  0  0  0  0  0
    0.5484    2.7269   -1.8059 H   0  0  0  0  0  0  0  0  0  0  0  0
   -0.3089    1.7012   -0.6405 H   0  0  0  0  0  0  0  0  0  0  0  0
   -1.7841    1.0265   -2.3890 H   0  0  0  0  0  0  0  0  0  0  0  0
   -1.4442    3.9545   -2.3863 H   0  0  0  0  0  0  0  0  0  0  0  0
   -2.7951    3.0621   -3.0699 H   0  0  0  0  0  0  0  0  0  0  0  0
   -2.0258    3.1257   -0.1136 H   0  0  0  0  0  0  0  0  0  0  0  0
   -3.4535    3.8729   -0.8931 H   0  0  0  0  0  0  0  0  0  0  0  0
   -4.7314    3.2603    3.1555 H   0  0  0  0  0  0  0  0  0  0  0  0
   -5.8398   -0.6657    1.8690 H   0  0  0  0  0  0  0  0  0  0  0  0
   -6.9780    0.3600    3.9044 H   0  0  0  0  0  0  0  0  0  0  0  0
   -6.5186    1.9774    4.4359 H   0  0  0  0  0  0  0  0  0  0  0  0
   -5.4338    0.6031    4.7554 H   0  0  0  0  0  0  0  0  0  0  0  0
  1  2  1  0  0  0  0
  2  3  2  0  0  0  0
  2  4  1  0  0  0  0
  3  5  1  0  0  0  0
  3  6  1  0  0  0  0
  4  7  2  0  0  0  0
  6  8  2  0  0  0  0
  7  9  1  0  0  0  0
  9 10  2  0  0  0  0
  9 11  1  0  0  0  0
 11 12  1  0  0  0  0
 11 13  1  0  0  0  0
 12 14  1  0  0  0  0
 13 15  1  0  0  0  0
 14 16  1  0  0  0  0
 16 17  1  0  0  0  0
 16 18  1  0  0  0  0
 18 19  1  0  0  0  0
 19 20  1  0  0  0  0
 20 21  1  0  0  0  0
 21 22  1  0  0  0  0
 22 23  1  0  0  0  0
 23 24  2  0  0  0  0
 23 25  1  0  0  0  0
 24 26  1  0  0  0  0
 25 27  2  0  0  0  0
 26 28  2  0  0  0  0
 28 29  1  0  0  0  0
  7  8  1  0  0  0  0
 15 16  1  0  0  0  0
 27 28  1  0  0  0  0
  4 30  1  0  0  0  0
  6 31  1  0  0  0  0
  8 32  1  0  0  0  0
 12 33  1  0  0  0  0
 12 34  1  0  0  0  0
 13 35  1  0  0  0  0
 13 36  1  0  0  0  0
 14 37  1  0  0  0  0
 14 38  1  0  0  0  0
 15 39  1  0  0  0  0
 15 40  1  0  0  0  0
 18 41  1  0  0  0  0
 18 42  1  0  0  0  0
 19 43  1  0  0  0  0
 20 44  1  0  0  0  0
 20 45  1  0  0  0  0
 21 46  1  0  0  0  0
 21 47  1  0  0  0  0
 26 48  1  0  0  0  0
 27 49  1  0  0  0  0
 29 50  1  0  0  0  0
 29 51  1  0  0  0  0
 29 52  1  0  0  0  0
M  END
>  <Molecule ChEMBL ID>
CHEMBL4746734

>  <Molecule Name>


>  <Molecule Max Phase>
None

>  <Molecular Weight>
424.88

>  <#RO5 Violations>
0

>  <AlogP>
3.19

>  <Compound Key>
27

>  <Smiles>
Cc1cnc(OCCNCC2(F)CCN(C(=O)c3ccc(F)c(Cl)c3)CC2)nc1

>  <Standard Type>
Ki

>  <Standard Relation>
'='

>  <Standard Value>
13.8

>  <Standard Units>
nM

>  <pChEMBL Value>
7.86

>  <Data Validity Comment>


>  <Comment>


>  <Uo Units>
UO_0000065

>  <Ligand Efficiency BEI>
18.50

>  <Ligand Efficiency LE>
0.37

>  <Ligand Efficiency LLE>
4.67

>  <Ligand Efficiency SEI>
11.67

>  <Potential Duplicate>
0

>  <Assay ChEMBL ID>
CHEMBL4707367

>  <Assay Description>
Displacement of [3H]8-OH-DPAT from recombinant human 5HT1A receptor stably expressed in CHO-K1 cell membranes measured after 60 mins by microbeta2 scintillation counting method

>  <Assay Type>
B

>  <BAO Format ID>
BAO_0000249

>  <BAO Label>
cell membrane format

>  <Assay Organism>
Homo sapiens

>  <Assay Tissue ChEMBL ID>
None

>  <Assay Tissue Name>
None

>  <Assay Cell Type>
CHO-K1

>  <Assay Subcellular Fraction>
Cell membrane

>  <Assay Parameters>


>  <Assay Variant Accession>


>  <Assay Variant Mutation>


>  <Target ChEMBL ID>
CHEMBL214

>  <Target Name>
Serotonin 1a (5-HT1a) receptor

>  <Target Organism>
Homo sapiens

>  <SmilesFragFp 3>


>  <Target Type>
SINGLE PROTEIN

>  <Document ChEMBL ID>
CHEMBL4706479

>  <Source ID>
1

>  <Source Description>
Scientific Literature

>  <Document Journal>
J Med Chem

>  <Document Year>
2019

>  <Cell ChEMBL ID>
None

>  <SmilesFragFp 4>


>  <Properties>
TIME = 1.0 hr

>  <Action Type>
PARTIAL AGONIST

>  <Row-ID>
5745

>  <Neighbor Similarity FragFp 95%>
0.98605; 1; 0.97706; 0.98605; 0.98605; 0.97706; 0.98605; 0.98605; 0.98605; 0.98605; 0.98605

>  <Neighbor Count>
11

>  <Neighbor>
5829; 942; 2678; 3354; 4917; 5183; 5209; 5663; 5690; 5691; 5744

>  <Neighbor Analysis X>
0.30910474

>  <Neighbor Analysis Y>
-0.27107424

>  <Row-ID 2>
5745

>  <Neighbor Similarity FragFp 95% 2>
0.98605; 1; 0.97706; 0.98605; 0.98605; 0.97706; 0.98605; 0.98605; 0.98605; 0.98605; 0.98605

>  <Neighbor Count 2>
11

>  <Neighbor 2>
5829; 942; 2678; 3354; 4917; 5183; 5209; 5663; 5690; 5691; 5744

>  <Neighbor Analysis X 2>
0.41150084

>  <Neighbor Analysis Y 2>
-0.3361393

>  <SALI pChEMBL Value/FragFp>
101.77; 0; 23.98; 83.133; 103.92; 97.664; 187.05; 29.383; 166.98; 68.8; 84.567

>  <MMFF94 Energy>


>  <MMFF94 Energy 2>
21.026

$$$$
CHEMBL4748858
Actelion Java MolfileCreator 1.0

 53 55  0  0  0  0  0  0  0  0999 V2000
    0.1607   -7.4956   -3.9440 Cl  0  0  0  0  0  0  0  0  0  0  0  0
    0.8598   -5.9243   -4.0205 C   0  0  0  0  0  0  0  0  0  0  0  0
    1.0826   -5.3051   -5.2516 C   0  0  0  0  0  0  0  0  0  0  0  0
    1.2027   -5.2693   -2.8390 C   0  0  0  0  0  0  0  0  0  0  0  0
    0.7549   -5.9216   -6.3967 F   0  0  0  0  0  0  0  0  0  0  0  0
    1.6542   -4.0355   -5.3188 C   0  0  0  0  0  0  0  0  0  0  0  0
    1.7537   -3.9853   -2.9054 C   0  0  0  0  0  0  0  0  0  0  0  0
    1.9997   -3.3719   -4.1413 C   0  0  0  0  0  0  0  0  0  0  0  0
    2.1459   -3.3144   -1.6502 C   0  0  0  0  0  0  0  0  0  0  0  0
    2.9793   -3.8865   -0.9532 O   0  0  0  0  0  0  0  0  0  0  0  0
    1.5655   -2.0930   -1.3278 N   0  0  0  0  0  0  0  0  0  0  0  0
    0.4034   -1.4937   -1.9820 C   0  0  0  0  0  0  0  0  0  0  0  0
    2.0728   -1.3484   -0.1790 C   0  0  0  0  0  0  0  0  0  0  0  0
   -0.7327   -1.3099   -0.9804 C   0  0  0  0  0  0  0  0  0  0  0  0
    0.9849   -1.1607    0.8706 C   0  0  0  0  0  0  0  0  0  0  0  0
   -0.2645   -0.5234    0.2502 C   0  0  0  0  0  0  0  0  0  0  0  0
    0.0705    0.7363   -0.1788 F   0  0  0  0  0  0  0  0  0  0  0  0
   -1.4242   -0.3863    1.2652 C   0  0  0  0  0  0  0  0  0  0  0  0
   -1.0463    0.3980    2.4442 N   0  0  0  0  0  0  0  0  0  0  0  0
   -2.1762    0.6042    3.3590 C   0  0  0  0  0  0  0  0  0  0  0  0
   -1.8997    1.7455    4.3572 C   0  0  0  0  0  0  0  0  0  0  0  0
   -2.4906    2.9820    3.9360 O   0  0  0  0  0  0  0  0  0  0  0  0
   -1.7389    3.7338    3.0580 C   0  0  0  0  0  0  0  0  0  0  0  0
   -0.6132    3.2259    2.5184 N   0  0  0  0  0  0  0  0  0  0  0  0
   -2.2360    4.9896    2.7496 C   0  0  0  0  0  0  0  0  0  0  0  0
    0.0514    4.0140    1.6419 C   0  0  0  0  0  0  0  0  0  0  0  0
   -1.5310    5.7800    1.8455 C   0  0  0  0  0  0  0  0  0  0  0  0
   -0.3508    5.2953    1.2810 C   0  0  0  0  0  0  0  0  0  0  0  0
    0.4182    6.0925    0.2767 C   0  0  0  0  0  0  0  0  0  0  0  0
    1.0521   -5.7473   -1.8740 H   0  0  0  0  0  0  0  0  0  0  0  0
    1.8329   -3.5789   -6.2878 H   0  0  0  0  0  0  0  0  0  0  0  0
    2.4660   -2.3902   -4.1846 H   0  0  0  0  0  0  0  0  0  0  0  0
    0.7169   -0.5287   -2.3969 H   0  0  0  0  0  0  0  0  0  0  0  0
    0.0405   -2.1086   -2.8078 H   0  0  0  0  0  0  0  0  0  0  0  0
    2.9364   -1.8508    0.2685 H   0  0  0  0  0  0  0  0  0  0  0  0
    2.4217   -0.3763   -0.5479 H   0  0  0  0  0  0  0  0  0  0  0  0
   -1.5550   -0.7802   -1.4755 H   0  0  0  0  0  0  0  0  0  0  0  0
   -1.1074   -2.2942   -0.6721 H   0  0  0  0  0  0  0  0  0  0  0  0
    1.3855   -0.5272    1.6698 H   0  0  0  0  0  0  0  0  0  0  0  0
    0.7275   -2.1328    1.3093 H   0  0  0  0  0  0  0  0  0  0  0  0
   -1.7569   -1.3825    1.5809 H   0  0  0  0  0  0  0  0  0  0  0  0
   -2.2633    0.1096    0.7613 H   0  0  0  0  0  0  0  0  0  0  0  0
   -0.7156    1.3277    2.1399 H   0  0  0  0  0  0  0  0  0  0  0  0
   -3.0953    0.8273    2.8043 H   0  0  0  0  0  0  0  0  0  0  0  0
   -2.3250   -0.3273    3.9165 H   0  0  0  0  0  0  0  0  0  0  0  0
   -2.4035    1.4924    5.2979 H   0  0  0  0  0  0  0  0  0  0  0  0
   -0.8377    1.8566    4.6129 H   0  0  0  0  0  0  0  0  0  0  0  0
   -3.1553    5.3433    3.2021 H   0  0  0  0  0  0  0  0  0  0  0  0
    0.9470    3.5642    1.2198 H   0  0  0  0  0  0  0  0  0  0  0  0
   -1.9072    6.7663    1.5865 H   0  0  0  0  0  0  0  0  0  0  0  0
    1.4875    5.8630    0.3317 H   0  0  0  0  0  0  0  0  0  0  0  0
    0.3066    7.1661    0.4618 H   0  0  0  0  0  0  0  0  0  0  0  0
    0.0601    5.8696   -0.7331 H   0  0  0  0  0  0  0  0  0  0  0  0
  1  2  1  0  0  0  0
  2  3  2  0  0  0  0
  2  4  1  0  0  0  0
  3  5  1  0  0  0  0
  3  6  1  0  0  0  0
  4  7  2  0  0  0  0
  6  8  2  0  0  0  0
  7  9  1  0  0  0  0
  9 10  2  0  0  0  0
  9 11  1  0  0  0  0
 11 12  1  0  0  0  0
 11 13  1  0  0  0  0
 12 14  1  0  0  0  0
 13 15  1  0  0  0  0
 14 16  1  0  0  0  0
 16 17  1  0  0  0  0
 16 18  1  0  0  0  0
 18 19  1  0  0  0  0
 19 20  1  0  0  0  0
 20 21  1  0  0  0  0
 21 22  1  0  0  0  0
 22 23  1  0  0  0  0
 23 24  2  0  0  0  0
 23 25  1  0  0  0  0
 24 26  1  0  0  0  0
 25 27  2  0  0  0  0
 26 28  2  0  0  0  0
 28 29  1  0  0  0  0
  7  8  1  0  0  0  0
 15 16  1  0  0  0  0
 27 28  1  0  0  0  0
  4 30  1  0  0  0  0
  6 31  1  0  0  0  0
  8 32  1  0  0  0  0
 12 33  1  0  0  0  0
 12 34  1  0  0  0  0
 13 35  1  0  0  0  0
 13 36  1  0  0  0  0
 14 37  1  0  0  0  0
 14 38  1  0  0  0  0
 15 39  1  0  0  0  0
 15 40  1  0  0  0  0
 18 41  1  0  0  0  0
 18 42  1  0  0  0  0
 19 43  1  0  0  0  0
 20 44  1  0  0  0  0
 20 45  1  0  0  0  0
 21 46  1  0  0  0  0
 21 47  1  0  0  0  0
 25 48  1  0  0  0  0
 26 49  1  0  0  0  0
 27 50  1  0  0  0  0
 29 51  1  0  0  0  0
 29 52  1  0  0  0  0
 29 53  1  0  0  0  0
M  END
>  <Molecule ChEMBL ID>
CHEMBL4748858

>  <Molecule Name>


>  <Molecule Max Phase>
None

>  <Molecular Weight>
423.89

>  <#RO5 Violations>
0

>  <AlogP>
3.80

>  <Compound Key>
26

>  <Smiles>
Cc1ccc(OCCNCC2(F)CCN(C(=O)c3ccc(F)c(Cl)c3)CC2)nc1

>  <Standard Type>
Ki

>  <Standard Relation>
'='

>  <Standard Value>
3.802

>  <Standard Units>
nM

>  <pChEMBL Value>
8.42

>  <Data Validity Comment>


>  <Comment>


>  <Uo Units>
UO_0000065

>  <Ligand Efficiency BEI>
19.86

>  <Ligand Efficiency LE>
0.40

>  <Ligand Efficiency LLE>
4.62

>  <Ligand Efficiency SEI>
15.46

>  <Potential Duplicate>
0

>  <Assay ChEMBL ID>
CHEMBL4707367

>  <Assay Description>
Displacement of [3H]8-OH-DPAT from recombinant human 5HT1A receptor stably expressed in CHO-K1 cell membranes measured after 60 mins by microbeta2 scintillation counting method

>  <Assay Type>
B

>  <BAO Format ID>
BAO_0000249

>  <BAO Label>
cell membrane format

>  <Assay Organism>
Homo sapiens

>  <Assay Tissue ChEMBL ID>
None

>  <Assay Tissue Name>
None

>  <Assay Cell Type>
CHO-K1

>  <Assay Subcellular Fraction>
Cell membrane

>  <Assay Parameters>


>  <Assay Variant Accession>


>  <Assay Variant Mutation>


>  <Target ChEMBL ID>
CHEMBL214

>  <Target Name>
Serotonin 1a (5-HT1a) receptor

>  <Target Organism>
Homo sapiens

>  <SmilesFragFp 3>


>  <Target Type>
SINGLE PROTEIN

>  <Document ChEMBL ID>
CHEMBL4706479

>  <Source ID>
1

>  <Source Description>
Scientific Literature

>  <Document Journal>
J Med Chem

>  <Document Year>
2019

>  <Cell ChEMBL ID>
None

>  <SmilesFragFp 4>


>  <Properties>
TIME = 1.0 hr

>  <Action Type>
AGONIST

>  <Row-ID>
942

>  <Neighbor Similarity FragFp 95%>
0.98605; 1; 0.98605; 0.98605; 0.98605; 0.98605; 0.98605; 0.97706; 0.98605; 0.98605; 0.97706

>  <Neighbor Count>
11

>  <Neighbor>
5829; 5745; 5744; 5691; 5690; 5663; 5209; 5183; 4917; 3354; 2678

>  <Neighbor Analysis X>
0.33180687

>  <Neighbor Analysis Y>
-0.26475298

>  <Row-ID 2>
942

>  <Neighbor Similarity FragFp 95% 2>
0.98605; 1; 0.98605; 0.98605; 0.98605; 0.98605; 0.98605; 0.97706; 0.98605; 0.98605; 0.97706

>  <Neighbor Count 2>
11

>  <Neighbor 2>
5829; 5745; 5744; 5690; 5691; 5663; 5209; 5183; 4917; 3354; 2678

>  <Neighbor Analysis X 2>
0.39309612

>  <Neighbor Analysis Y 2>
-0.31881034

>  <SALI pChEMBL Value/FragFp>
61.633; 0; 124.7; 126.85; 28.667; 69.517; 146.92; 73.248; 144.05; 123.27; 0.43601

>  <MMFF94 Energy>


>  <MMFF94 Energy 2>
53.44

$$$$
CHEMBL4747083
Actelion Java MolfileCreator 1.0

 55 57  0  0  0  0  0  0  0  0999 V2000
    0.1605   -8.0503   -0.9634 Cl  0  0  0  0  0  0  0  0  0  0  0  0
    0.4646   -7.2515    0.5308 C   0  0  0  0  0  0  0  0  0  0  0  0
   -0.0621   -7.7496    1.7237 C   0  0  0  0  0  0  0  0  0  0  0  0
    1.2447   -6.0962    0.5410 C   0  0  0  0  0  0  0  0  0  0  0  0
   -0.8165   -8.8583    1.7279 F   0  0  0  0  0  0  0  0  0  0  0  0
    0.1890   -7.1091    2.9355 C   0  0  0  0  0  0  0  0  0  0  0  0
    1.4749   -5.4377    1.7549 C   0  0  0  0  0  0  0  0  0  0  0  0
    0.9677   -5.9516    2.9548 C   0  0  0  0  0  0  0  0  0  0  0  0
    2.3286   -4.2327    1.7996 C   0  0  0  0  0  0  0  0  0  0  0  0
    3.3230   -4.2833    2.5184 O   0  0  0  0  0  0  0  0  0  0  0  0
    1.9753   -3.1232    1.0395 N   0  0  0  0  0  0  0  0  0  0  0  0
    0.6823   -2.8970    0.3957 C   0  0  0  0  0  0  0  0  0  0  0  0
    2.9163   -2.0125    0.9285 C   0  0  0  0  0  0  0  0  0  0  0  0
    0.0225   -1.6421    0.9603 C   0  0  0  0  0  0  0  0  0  0  0  0
    2.3203   -0.7363    1.5086 C   0  0  0  0  0  0  0  0  0  0  0  0
    0.9605   -0.4324    0.8682 C   0  0  0  0  0  0  0  0  0  0  0  0
    1.1652   -0.1778   -0.4638 F   0  0  0  0  0  0  0  0  0  0  0  0
    0.2828    0.8156    1.4833 C   0  0  0  0  0  0  0  0  0  0  0  0
    1.1146    2.0195    1.3584 N   0  0  0  0  0  0  0  0  0  0  0  0
    0.4676    3.2266    1.8925 C   0  0  0  0  0  0  0  0  0  0  0  0
   -0.6784    3.7812    1.0294 C   0  0  0  0  0  0  0  0  0  0  0  0
   -0.1862    4.0084   -0.2938 O   0  0  0  0  0  0  0  0  0  0  0  0
   -1.0840    4.4523   -1.2235 C   0  0  0  0  0  0  0  0  0  0  0  0
   -0.5747    4.5667   -2.5188 C   0  0  0  0  0  0  0  0  0  0  0  0
   -2.4140    4.7919   -0.9859 C   0  0  0  0  0  0  0  0  0  0  0  0
   -1.3817    5.0099   -3.5728 C   0  0  0  0  0  0  0  0  0  0  0  0
   -3.2210    5.2353   -2.0400 C   0  0  0  0  0  0  0  0  0  0  0  0
   -2.7129    5.3465   -3.3362 C   0  0  0  0  0  0  0  0  0  0  0  0
   -3.6104    5.7909   -4.2668 O   0  0  0  0  0  0  0  0  0  0  0  0
   -3.1371    5.9261   -5.6010 C   0  0  0  0  0  0  0  0  0  0  0  0
    1.6776   -5.7139   -0.3796 H   0  0  0  0  0  0  0  0  0  0  0  0
   -0.2158   -7.5211    3.8551 H   0  0  0  0  0  0  0  0  0  0  0  0
    1.1875   -5.4549    3.8980 H   0  0  0  0  0  0  0  0  0  0  0  0
    0.8599   -2.7937   -0.6808 H   0  0  0  0  0  0  0  0  0  0  0  0
    0.0031   -3.7389    0.5432 H   0  0  0  0  0  0  0  0  0  0  0  0
    3.8612   -2.2422    1.4312 H   0  0  0  0  0  0  0  0  0  0  0  0
    3.1423   -1.8808   -0.1365 H   0  0  0  0  0  0  0  0  0  0  0  0
   -0.8993   -1.4478    0.3997 H   0  0  0  0  0  0  0  0  0  0  0  0
   -0.2547   -1.8179    2.0075 H   0  0  0  0  0  0  0  0  0  0  0  0
    3.0243    0.0836    1.3287 H   0  0  0  0  0  0  0  0  0  0  0  0
    2.2036   -0.8469    2.5939 H   0  0  0  0  0  0  0  0  0  0  0  0
   -0.6681    0.9746    0.9627 H   0  0  0  0  0  0  0  0  0  0  0  0
    0.0647    0.6290    2.5417 H   0  0  0  0  0  0  0  0  0  0  0  0
    1.3082    2.1757    0.3629 H   0  0  0  0  0  0  0  0  0  0  0  0
    0.1204    3.0548    2.9178 H   0  0  0  0  0  0  0  0  0  0  0  0
    1.2483    3.9945    1.9499 H   0  0  0  0  0  0  0  0  0  0  0  0
   -1.5129    3.0710    1.0123 H   0  0  0  0  0  0  0  0  0  0  0  0
   -1.0147    4.7288    1.4673 H   0  0  0  0  0  0  0  0  0  0  0  0
    0.4634    4.3062   -2.7120 H   0  0  0  0  0  0  0  0  0  0  0  0
   -2.8576    4.7298    0.0015 H   0  0  0  0  0  0  0  0  0  0  0  0
   -0.9374    5.0792   -4.5596 H   0  0  0  0  0  0  0  0  0  0  0  0
   -4.2585    5.4992   -1.8476 H   0  0  0  0  0  0  0  0  0  0  0  0
   -2.3306    6.6644   -5.6610 H   0  0  0  0  0  0  0  0  0  0  0  0
   -3.9671    6.2894   -6.2148 H   0  0  0  0  0  0  0  0  0  0  0  0
   -2.8207    4.9598   -6.0073 H   0  0  0  0  0  0  0  0  0  0  0  0
  1  2  1  0  0  0  0
  2  3  2  0  0  0  0
  2  4  1  0  0  0  0
  3  5  1  0  0  0  0
  3  6  1  0  0  0  0
  4  7  2  0  0  0  0
  6  8  2  0  0  0  0
  7  9  1  0  0  0  0
  9 10  2  0  0  0  0
  9 11  1  0  0  0  0
 11 12  1  0  0  0  0
 11 13  1  0  0  0  0
 12 14  1  0  0  0  0
 13 15  1  0  0  0  0
 14 16  1  0  0  0  0
 16 17  1  0  0  0  0
 16 18  1  0  0  0  0
 18 19  1  0  0  0  0
 19 20  1  0  0  0  0
 20 21  1  0  0  0  0
 21 22  1  0  0  0  0
 22 23  1  0  0  0  0
 23 24  2  0  0  0  0
 23 25  1  0  0  0  0
 24 26  1  0  0  0  0
 25 27  2  0  0  0  0
 26 28  2  0  0  0  0
 28 29  1  0  0  0  0
 29 30  1  0  0  0  0
  7  8  1  0  0  0  0
 15 16  1  0  0  0  0
 27 28  1  0  0  0  0
  4 31  1  0  0  0  0
  6 32  1  0  0  0  0
  8 33  1  0  0  0  0
 12 34  1  0  0  0  0
 12 35  1  0  0  0  0
 13 36  1  0  0  0  0
 13 37  1  0  0  0  0
 14 38  1  0  0  0  0
 14 39  1  0  0  0  0
 15 40  1  0  0  0  0
 15 41  1  0  0  0  0
 18 42  1  0  0  0  0
 18 43  1  0  0  0  0
 19 44  1  0  0  0  0
 20 45  1  0  0  0  0
 20 46  1  0  0  0  0
 21 47  1  0  0  0  0
 21 48  1  0  0  0  0
 24 49  1  0  0  0  0
 25 50  1  0  0  0  0
 26 51  1  0  0  0  0
 27 52  1  0  0  0  0
 30 53  1  0  0  0  0
 30 54  1  0  0  0  0
 30 55  1  0  0  0  0
M  END
>  <Molecule ChEMBL ID>
CHEMBL4747083

>  <Molecule Name>


>  <Molecule Max Phase>
None

>  <Molecular Weight>
438.90

>  <#RO5 Violations>
0

>  <AlogP>
4.10

>  <Compound Key>
40

>  <Smiles>
COc1ccc(OCCNCC2(F)CCN(C(=O)c3ccc(F)c(Cl)c3)CC2)cc1

>  <Standard Type>
Ki

>  <Standard Relation>
'='

>  <Standard Value>
6.607

>  <Standard Units>
nM

>  <pChEMBL Value>
8.18

>  <Data Validity Comment>


>  <Comment>


>  <Uo Units>
UO_0000065

>  <Ligand Efficiency BEI>
18.64

>  <Ligand Efficiency LE>
0.37

>  <Ligand Efficiency LLE>
4.08

>  <Ligand Efficiency SEI>
16.10

>  <Potential Duplicate>
0

>  <Assay ChEMBL ID>
CHEMBL4670397

>  <Assay Description>
Displacement of [3H]8-OH-DPAT from human 5-HT1A receptor stably expressed in CHO-K1 cell membranes measured after 60 mins by Microbeta2 scintillation counting method

>  <Assay Type>
B

>  <BAO Format ID>
BAO_0000219

>  <BAO Label>
cell-based format

>  <Assay Organism>
Homo sapiens

>  <Assay Tissue ChEMBL ID>
None

>  <Assay Tissue Name>
None

>  <Assay Cell Type>
CHO-K1

>  <Assay Subcellular Fraction>
None

>  <Assay Parameters>


>  <Assay Variant Accession>


>  <Assay Variant Mutation>


>  <Target ChEMBL ID>
CHEMBL214

>  <Target Name>
Serotonin 1a (5-HT1a) receptor

>  <Target Organism>
Homo sapiens

>  <SmilesFragFp 3>


>  <Target Type>
SINGLE PROTEIN

>  <Document ChEMBL ID>
CHEMBL4665789

>  <Source ID>
1

>  <Source Description>
Scientific Literature

>  <Document Journal>
J Med Chem

>  <Document Year>
2020

>  <Cell ChEMBL ID>
None

>  <SmilesFragFp 4>


>  <Properties>
TIME = 1.0 hr

>  <Action Type>
AGONIST

>  <Row-ID>
5462

>  <Neighbor Similarity FragFp 95%>
0.98157; 0.98157; 1; 0.99539; 0.98157; 0.99539

>  <Neighbor Count>
6

>  <Neighbor>
5820; 941; 2674; 2678; 5182; 5183

>  <Neighbor Analysis X>
0.35506546

>  <Neighbor Analysis Y>
-0.2548493

>  <Row-ID 2>
5462

>  <Neighbor Similarity FragFp 95% 2>
0.98157; 0.98157; 1; 0.99539; 0.98157; 0.99539

>  <Neighbor Count 2>
6

>  <Neighbor 2>
5820; 941; 2674; 2678; 5182; 5183

>  <Neighbor Analysis X 2>
0.40240505

>  <Neighbor Analysis Y 2>
-0.2956412

>  <SALI pChEMBL Value/FragFp>
110.13; 143.76; 0; 49.91; 110.13; 416.64

>  <MMFF94 Energy>


>  <MMFF94 Energy 2>
74.616

$$$$
CHEMBL4753394
Actelion Java MolfileCreator 1.0

 55 57  0  0  0  0  0  0  0  0999 V2000
   -1.6959   -7.6081    1.1304 Cl  0  0  0  0  0  0  0  0  0  0  0  0
   -0.9897   -6.9583   -0.3063 C   0  0  0  0  0  0  0  0  0  0  0  0
   -1.0907   -7.6009   -1.5482 C   0  0  0  0  0  0  0  0  0  0  0  0
   -0.2995   -5.7486   -0.2000 C   0  0  0  0  0  0  0  0  0  0  0  0
   -1.9328   -9.0958   -1.7513 Cl  0  0  0  0  0  0  0  0  0  0  0  0
   -0.4930   -7.0344   -2.6804 C   0  0  0  0  0  0  0  0  0  0  0  0
    0.2734   -5.1785   -1.3398 C   0  0  0  0  0  0  0  0  0  0  0  0
    0.1967   -5.8253   -2.5774 C   0  0  0  0  0  0  0  0  0  0  0  0
    1.0299   -3.9187   -1.2024 C   0  0  0  0  0  0  0  0  0  0  0  0
    1.9955   -3.9306   -0.4439 O   0  0  0  0  0  0  0  0  0  0  0  0
    0.6219   -2.8039   -1.9256 N   0  0  0  0  0  0  0  0  0  0  0  0
   -0.6551   -2.6532   -2.6242 C   0  0  0  0  0  0  0  0  0  0  0  0
    1.4503   -1.6030   -1.9012 C   0  0  0  0  0  0  0  0  0  0  0  0
   -1.4681   -1.5189   -2.0054 C   0  0  0  0  0  0  0  0  0  0  0  0
    0.6989   -0.4497   -1.2468 C   0  0  0  0  0  0  0  0  0  0  0  0
   -0.6478   -0.2243   -1.9453 C   0  0  0  0  0  0  0  0  0  0  0  0
   -0.3768    0.1445   -3.2408 F   0  0  0  0  0  0  0  0  0  0  0  0
   -1.4468    0.9421   -1.3177 C   0  0  0  0  0  0  0  0  0  0  0  0
   -1.8772    0.7114    0.0666 N   0  0  0  0  0  0  0  0  0  0  0  0
   -2.7104    1.8086    0.5884 C   0  0  0  0  0  0  0  0  0  0  0  0
   -1.9384    3.1047    0.8885 C   0  0  0  0  0  0  0  0  0  0  0  0
   -0.8457    2.7889    1.7565 O   0  0  0  0  0  0  0  0  0  0  0  0
   -0.0043    3.8109    2.0947 C   0  0  0  0  0  0  0  0  0  0  0  0
    1.0812    3.4349    2.8891 C   0  0  0  0  0  0  0  0  0  0  0  0
   -0.1431    5.1468    1.7255 C   0  0  0  0  0  0  0  0  0  0  0  0
    2.0255    4.3781    3.3100 C   0  0  0  0  0  0  0  0  0  0  0  0
    0.8015    6.0898    2.1465 C   0  0  0  0  0  0  0  0  0  0  0  0
    1.8888    5.7136    2.9382 C   0  0  0  0  0  0  0  0  0  0  0  0
    2.7319    6.7354    3.2756 O   0  0  0  0  0  0  0  0  0  0  0  0
    3.8534    6.4017    4.0839 C   0  0  0  0  0  0  0  0  0  0  0  0
   -0.1999   -5.2493    0.7613 H   0  0  0  0  0  0  0  0  0  0  0  0
   -0.5555   -7.5358   -3.6436 H   0  0  0  0  0  0  0  0  0  0  0  0
    0.6785   -5.3960   -3.4529 H   0  0  0  0  0  0  0  0  0  0  0  0
   -0.4339   -2.4436   -3.6771 H   0  0  0  0  0  0  0  0  0  0  0  0
   -1.2502   -3.5674   -2.5857 H   0  0  0  0  0  0  0  0  0  0  0  0
    2.3911   -1.7809   -1.3706 H   0  0  0  0  0  0  0  0  0  0  0  0
    1.7066   -1.3581   -2.9388 H   0  0  0  0  0  0  0  0  0  0  0  0
   -2.3717   -1.3641   -2.6060 H   0  0  0  0  0  0  0  0  0  0  0  0
   -1.7834   -1.8163   -0.9979 H   0  0  0  0  0  0  0  0  0  0  0  0
    1.3127    0.4558   -1.3118 H   0  0  0  0  0  0  0  0  0  0  0  0
    0.5486   -0.6782   -0.1852 H   0  0  0  0  0  0  0  0  0  0  0  0
   -2.3256    1.1249   -1.9493 H   0  0  0  0  0  0  0  0  0  0  0  0
   -0.8315    1.8474   -1.3826 H   0  0  0  0  0  0  0  0  0  0  0  0
   -1.0538    0.6510    0.6729 H   0  0  0  0  0  0  0  0  0  0  0  0
   -3.5510    2.0119   -0.0847 H   0  0  0  0  0  0  0  0  0  0  0  0
   -3.1417    1.4463    1.5292 H   0  0  0  0  0  0  0  0  0  0  0  0
   -1.5717    3.5456   -0.0454 H   0  0  0  0  0  0  0  0  0  0  0  0
   -2.6165    3.8089    1.3851 H   0  0  0  0  0  0  0  0  0  0  0  0
    1.1953    2.3950    3.1859 H   0  0  0  0  0  0  0  0  0  0  0  0
   -0.9699    5.4943    1.1162 H   0  0  0  0  0  0  0  0  0  0  0  0
    2.8498    4.0338    3.9249 H   0  0  0  0  0  0  0  0  0  0  0  0
    0.6872    7.1313    1.8546 H   0  0  0  0  0  0  0  0  0  0  0  0
    3.5367    6.0112    5.0566 H   0  0  0  0  0  0  0  0  0  0  0  0
    4.4212    7.3198    4.2629 H   0  0  0  0  0  0  0  0  0  0  0  0
    4.5144    5.6962    3.5699 H   0  0  0  0  0  0  0  0  0  0  0  0
  1  2  1  0  0  0  0
  2  3  2  0  0  0  0
  2  4  1  0  0  0  0
  3  5  1  0  0  0  0
  3  6  1  0  0  0  0
  4  7  2  0  0  0  0
  6  8  2  0  0  0  0
  7  9  1  0  0  0  0
  9 10  2  0  0  0  0
  9 11  1  0  0  0  0
 11 12  1  0  0  0  0
 11 13  1  0  0  0  0
 12 14  1  0  0  0  0
 13 15  1  0  0  0  0
 14 16  1  0  0  0  0
 16 17  1  0  0  0  0
 16 18  1  0  0  0  0
 18 19  1  0  0  0  0
 19 20  1  0  0  0  0
 20 21  1  0  0  0  0
 21 22  1  0  0  0  0
 22 23  1  0  0  0  0
 23 24  2  0  0  0  0
 23 25  1  0  0  0  0
 24 26  1  0  0  0  0
 25 27  2  0  0  0  0
 26 28  2  0  0  0  0
 28 29  1  0  0  0  0
 29 30  1  0  0  0  0
  7  8  1  0  0  0  0
 15 16  1  0  0  0  0
 27 28  1  0  0  0  0
  4 31  1  0  0  0  0
  6 32  1  0  0  0  0
  8 33  1  0  0  0  0
 12 34  1  0  0  0  0
 12 35  1  0  0  0  0
 13 36  1  0  0  0  0
 13 37  1  0  0  0  0
 14 38  1  0  0  0  0
 14 39  1  0  0  0  0
 15 40  1  0  0  0  0
 15 41  1  0  0  0  0
 18 42  1  0  0  0  0
 18 43  1  0  0  0  0
 19 44  1  0  0  0  0
 20 45  1  0  0  0  0
 20 46  1  0  0  0  0
 21 47  1  0  0  0  0
 21 48  1  0  0  0  0
 24 49  1  0  0  0  0
 25 50  1  0  0  0  0
 26 51  1  0  0  0  0
 27 52  1  0  0  0  0
 30 53  1  0  0  0  0
 30 54  1  0  0  0  0
 30 55  1  0  0  0  0
M  END
>  <Molecule ChEMBL ID>
CHEMBL4753394

>  <Molecule Name>


>  <Molecule Max Phase>
None

>  <Molecular Weight>
455.36

>  <#RO5 Violations>
0

>  <AlogP>
4.61

>  <Compound Key>
41

>  <Smiles>
COc1ccc(OCCNCC2(F)CCN(C(=O)c3ccc(Cl)c(Cl)c3)CC2)cc1

>  <Standard Type>
Ki

>  <Standard Relation>
'='

>  <Standard Value>
1.23

>  <Standard Units>
nM

>  <pChEMBL Value>
8.91

>  <Data Validity Comment>


>  <Comment>


>  <Uo Units>
UO_0000065

>  <Ligand Efficiency BEI>
19.57

>  <Ligand Efficiency LE>
0.41

>  <Ligand Efficiency LLE>
4.30

>  <Ligand Efficiency SEI>
17.54

>  <Potential Duplicate>
0

>  <Assay ChEMBL ID>
CHEMBL4670397

>  <Assay Description>
Displacement of [3H]8-OH-DPAT from human 5-HT1A receptor stably expressed in CHO-K1 cell membranes measured after 60 mins by Microbeta2 scintillation counting method

>  <Assay Type>
B

>  <BAO Format ID>
BAO_0000219

>  <BAO Label>
cell-based format

>  <Assay Organism>
Homo sapiens

>  <Assay Tissue ChEMBL ID>
None

>  <Assay Tissue Name>
None

>  <Assay Cell Type>
CHO-K1

>  <Assay Subcellular Fraction>
None

>  <Assay Parameters>


>  <Assay Variant Accession>


>  <Assay Variant Mutation>


>  <Target ChEMBL ID>
CHEMBL214

>  <Target Name>
Serotonin 1a (5-HT1a) receptor

>  <Target Organism>
Homo sapiens

>  <SmilesFragFp 3>


>  <Target Type>
SINGLE PROTEIN

>  <Document ChEMBL ID>
CHEMBL4665789

>  <Source ID>
1

>  <Source Description>
Scientific Literature

>  <Document Journal>
J Med Chem

>  <Document Year>
2020

>  <Cell ChEMBL ID>
None

>  <SmilesFragFp 4>


>  <Properties>
TIME = 1.0 hr

>  <Action Type>
AGONIST

>  <Row-ID>
2674

>  <Neighbor Similarity FragFp 95%>
0.98157; 1; 0.98157; 0.99539; 0.99539; 0.98157

>  <Neighbor Count>
6

>  <Neighbor>
5820; 5462; 5182; 5183; 2678; 941

>  <Neighbor Analysis X>
0.37087318

>  <Neighbor Analysis Y>
-0.23196115

>  <Row-ID 2>
2674

>  <Neighbor Similarity FragFp 95% 2>
0.98157; 1; 0.99539; 0.98157; 0.98157; 0.99539

>  <Neighbor Count 2>
6

>  <Neighbor 2>
5820; 5462; 5183; 5182; 941; 2678

>  <Neighbor Analysis X 2>
0.4192132

>  <Neighbor Analysis Y 2>
-0.27705497

>  <SALI pChEMBL Value/FragFp>
70.525; 0; 258.23; 70.525; 104.16; 108.5

>  <MMFF94 Energy>


>  <MMFF94 Energy 2>
76.011

$$$$
CHEMBL4751777
Actelion Java MolfileCreator 1.0

 55 57  0  0  0  0  0  0  0  0999 V2000
    7.8888   -5.3883    2.8120 Cl  0  0  0  0  0  0  0  0  0  0  0  0
    6.5653   -4.3139    3.0504 C   0  0  0  0  0  0  0  0  0  0  0  0
    6.6409   -3.2931    3.9999 C   0  0  0  0  0  0  0  0  0  0  0  0
    5.4110   -4.4692    2.2853 C   0  0  0  0  0  0  0  0  0  0  0  0
    7.7458   -3.1295    4.7420 F   0  0  0  0  0  0  0  0  0  0  0  0
    5.5690   -2.4247    4.2017 C   0  0  0  0  0  0  0  0  0  0  0  0
    4.3452   -3.5835    2.4728 C   0  0  0  0  0  0  0  0  0  0  0  0
    4.4097   -2.5721    3.4404 C   0  0  0  0  0  0  0  0  0  0  0  0
    3.1144   -3.7758    1.6835 C   0  0  0  0  0  0  0  0  0  0  0  0
    2.4893   -4.8147    1.8757 O   0  0  0  0  0  0  0  0  0  0  0  0
    2.7278   -2.7859    0.7876 N   0  0  0  0  0  0  0  0  0  0  0  0
    1.4724   -2.9395    0.0626 C   0  0  0  0  0  0  0  0  0  0  0  0
    3.5335   -1.6398    0.3723 C   0  0  0  0  0  0  0  0  0  0  0  0
    0.6151   -1.6854    0.1978 C   0  0  0  0  0  0  0  0  0  0  0  0
    2.7405   -0.3509    0.5409 C   0  0  0  0  0  0  0  0  0  0  0  0
    1.3973   -0.4289   -0.1990 C   0  0  0  0  0  0  0  0  0  0  0  0
    1.6704   -0.5227   -1.5394 F   0  0  0  0  0  0  0  0  0  0  0  0
    0.5981    0.8792    0.0263 C   0  0  0  0  0  0  0  0  0  0  0  0
   -0.6133    1.0213   -0.7854 N   0  0  0  0  0  0  0  0  0  0  0  0
   -1.8529    0.7261   -0.0624 C   0  0  0  0  0  0  0  0  0  0  0  0
   -3.0962    0.8297   -0.9646 C   0  0  0  0  0  0  0  0  0  0  0  0
   -3.3635    2.2010   -1.2511 O   0  0  0  0  0  0  0  0  0  0  0  0
   -4.4842    2.4960   -1.9876 C   0  0  0  0  0  0  0  0  0  0  0  0
   -4.7766    3.8662   -2.1490 C   0  0  0  0  0  0  0  0  0  0  0  0
   -5.3186    1.5390   -2.5767 C   0  0  0  0  0  0  0  0  0  0  0  0
   -3.9156    4.7439   -1.5372 O   0  0  0  0  0  0  0  0  0  0  0  0
   -5.9008    4.2499   -2.8896 C   0  0  0  0  0  0  0  0  0  0  0  0
   -6.4358    1.9341   -3.3152 C   0  0  0  0  0  0  0  0  0  0  0  0
   -4.1147    6.1302   -1.7696 C   0  0  0  0  0  0  0  0  0  0  0  0
   -6.7266    3.2857   -3.4706 C   0  0  0  0  0  0  0  0  0  0  0  0
    5.3313   -5.2701    1.5545 H   0  0  0  0  0  0  0  0  0  0  0  0
    5.6446   -1.6475    4.9565 H   0  0  0  0  0  0  0  0  0  0  0  0
    3.5604   -1.9138    3.6060 H   0  0  0  0  0  0  0  0  0  0  0  0
    1.7185   -3.1287   -0.9890 H   0  0  0  0  0  0  0  0  0  0  0  0
    0.9092   -3.8058    0.4243 H   0  0  0  0  0  0  0  0  0  0  0  0
    4.4741   -1.5774    0.9225 H   0  0  0  0  0  0  0  0  0  0  0  0
    3.7979   -1.7926   -0.6812 H   0  0  0  0  0  0  0  0  0  0  0  0
   -0.2627   -1.8090   -0.4452 H   0  0  0  0  0  0  0  0  0  0  0  0
    0.2678   -1.5933    1.2343 H   0  0  0  0  0  0  0  0  0  0  0  0
    3.3372    0.4814    0.1502 H   0  0  0  0  0  0  0  0  0  0  0  0
    2.5671   -0.1661    1.6085 H   0  0  0  0  0  0  0  0  0  0  0  0
    0.3834    1.0209    1.0930 H   0  0  0  0  0  0  0  0  0  0  0  0
    1.2462    1.7144   -0.2668 H   0  0  0  0  0  0  0  0  0  0  0  0
   -0.5331    0.4860   -1.6500 H   0  0  0  0  0  0  0  0  0  0  0  0
   -1.8160   -0.2868    0.3497 H   0  0  0  0  0  0  0  0  0  0  0  0
   -1.9590    1.4323    0.7695 H   0  0  0  0  0  0  0  0  0  0  0  0
   -2.9294    0.2660   -1.8905 H   0  0  0  0  0  0  0  0  0  0  0  0
   -3.9461    0.3982   -0.4215 H   0  0  0  0  0  0  0  0  0  0  0  0
   -5.1247    0.4764   -2.4843 H   0  0  0  0  0  0  0  0  0  0  0  0
   -6.1636    5.2926   -3.0302 H   0  0  0  0  0  0  0  0  0  0  0  0
   -7.0783    1.1846   -3.7703 H   0  0  0  0  0  0  0  0  0  0  0  0
   -4.0486    6.3681   -2.8364 H   0  0  0  0  0  0  0  0  0  0  0  0
   -3.3141    6.6735   -1.2585 H   0  0  0  0  0  0  0  0  0  0  0  0
   -5.0665    6.4675   -1.3464 H   0  0  0  0  0  0  0  0  0  0  0  0
   -7.5973    3.5921   -4.0448 H   0  0  0  0  0  0  0  0  0  0  0  0
  1  2  1  0  0  0  0
  2  3  2  0  0  0  0
  2  4  1  0  0  0  0
  3  5  1  0  0  0  0
  3  6  1  0  0  0  0
  4  7  2  0  0  0  0
  6  8  2  0  0  0  0
  7  9  1  0  0  0  0
  9 10  2  0  0  0  0
  9 11  1  0  0  0  0
 11 12  1  0  0  0  0
 11 13  1  0  0  0  0
 12 14  1  0  0  0  0
 13 15  1  0  0  0  0
 14 16  1  0  0  0  0
 16 17  1  0  0  0  0
 16 18  1  0  0  0  0
 18 19  1  0  0  0  0
 19 20  1  0  0  0  0
 20 21  1  0  0  0  0
 21 22  1  0  0  0  0
 22 23  1  0  0  0  0
 23 24  2  0  0  0  0
 23 25  1  0  0  0  0
 24 26  1  0  0  0  0
 24 27  1  0  0  0  0
 25 28  2  0  0  0  0
 26 29  1  0  0  0  0
 27 30  2  0  0  0  0
  7  8  1  0  0  0  0
 15 16  1  0  0  0  0
 28 30  1  0  0  0  0
  4 31  1  0  0  0  0
  6 32  1  0  0  0  0
  8 33  1  0  0  0  0
 12 34  1  0  0  0  0
 12 35  1  0  0  0  0
 13 36  1  0  0  0  0
 13 37  1  0  0  0  0
 14 38  1  0  0  0  0
 14 39  1  0  0  0  0
 15 40  1  0  0  0  0
 15 41  1  0  0  0  0
 18 42  1  0  0  0  0
 18 43  1  0  0  0  0
 19 44  1  0  0  0  0
 20 45  1  0  0  0  0
 20 46  1  0  0  0  0
 21 47  1  0  0  0  0
 21 48  1  0  0  0  0
 25 49  1  0  0  0  0
 27 50  1  0  0  0  0
 28 51  1  0  0  0  0
 29 52  1  0  0  0  0
 29 53  1  0  0  0  0
 29 54  1  0  0  0  0
 30 55  1  0  0  0  0
M  END
>  <Molecule ChEMBL ID>
CHEMBL4751777

>  <Molecule Name>


>  <Molecule Max Phase>
None

>  <Molecular Weight>
438.90

>  <#RO5 Violations>
0

>  <AlogP>
4.10

>  <Compound Key>
36

>  <Smiles>
COc1ccccc1OCCNCC1(F)CCN(C(=O)c2ccc(F)c(Cl)c2)CC1

>  <Standard Type>
Ki

>  <Standard Relation>
'='

>  <Standard Value>
0.0309

>  <Standard Units>
nM

>  <pChEMBL Value>
10.51

>  <Data Validity Comment>


>  <Comment>


>  <Uo Units>
UO_0000065

>  <Ligand Efficiency BEI>
23.95

>  <Ligand Efficiency LE>
0.48

>  <Ligand Efficiency LLE>
6.41

>  <Ligand Efficiency SEI>
20.69

>  <Potential Duplicate>
0

>  <Assay ChEMBL ID>
CHEMBL4670397

>  <Assay Description>
Displacement of [3H]8-OH-DPAT from human 5-HT1A receptor stably expressed in CHO-K1 cell membranes measured after 60 mins by Microbeta2 scintillation counting method

>  <Assay Type>
B

>  <BAO Format ID>
BAO_0000219

>  <BAO Label>
cell-based format

>  <Assay Organism>
Homo sapiens

>  <Assay Tissue ChEMBL ID>
None

>  <Assay Tissue Name>
None

>  <Assay Cell Type>
CHO-K1

>  <Assay Subcellular Fraction>
None

>  <Assay Parameters>


>  <Assay Variant Accession>


>  <Assay Variant Mutation>


>  <Target ChEMBL ID>
CHEMBL214

>  <Target Name>
Serotonin 1a (5-HT1a) receptor

>  <Target Organism>
Homo sapiens

>  <SmilesFragFp 3>


>  <Target Type>
SINGLE PROTEIN

>  <Document ChEMBL ID>
CHEMBL4665789

>  <Source ID>
1

>  <Source Description>
Scientific Literature

>  <Document Journal>
J Med Chem

>  <Document Year>
2020

>  <Cell ChEMBL ID>
None

>  <SmilesFragFp 4>


>  <Properties>
TIME = 1.0 hr

>  <Action Type>
AGONIST

>  <Row-ID>
5315

>  <Neighbor Similarity FragFp 95%>
1; 0.9823; 0.97835; 0.98261; 0.97835; 0.9823

>  <Neighbor Count>
6

>  <Neighbor>
5606; 1078; 2307; 2675; 5039; 5181

>  <Neighbor Analysis X>
0.59340644

>  <Neighbor Analysis Y>
0.21091853

>  <Row-ID 2>
5315

>  <Neighbor Similarity FragFp 95% 2>
1; 0.9823; 0.97835; 0.98261; 0.97835; 0.9823

>  <Neighbor Count 2>
6

>  <Neighbor 2>
5606; 1078; 2307; 2675; 5039; 5181

>  <Neighbor Analysis X 2>
-0.010473955

>  <Neighbor Analysis Y 2>
0.4624957

>  <SALI pChEMBL Value/FragFp>
0; 21.47; 36.96; 33.35; 30.03; 16.385

>  <MMFF94 Energy>


>  <MMFF94 Energy 2>
97.928

$$$$
CHEMBL4800575
Actelion Java MolfileCreator 1.0

 55 57  0  0  0  0  0  0  0  0999 V2000
    4.4478   -4.2048   -4.1238 Cl  0  0  0  0  0  0  0  0  0  0  0  0
    3.6075   -3.6389   -2.7241 C   0  0  0  0  0  0  0  0  0  0  0  0
    3.0251   -4.5119   -1.7941 C   0  0  0  0  0  0  0  0  0  0  0  0
    3.5188   -2.2574   -2.5372 C   0  0  0  0  0  0  0  0  0  0  0  0
    3.0947   -6.2293   -1.9678 Cl  0  0  0  0  0  0  0  0  0  0  0  0
    2.3598   -3.9991   -0.6741 C   0  0  0  0  0  0  0  0  0  0  0  0
    2.8350   -1.7559   -1.4257 C   0  0  0  0  0  0  0  0  0  0  0  0
    2.2692   -2.6193   -0.4841 C   0  0  0  0  0  0  0  0  0  0  0  0
    2.7578   -0.3006   -1.1982 C   0  0  0  0  0  0  0  0  0  0  0  0
    3.2938    0.1354   -0.1826 O   0  0  0  0  0  0  0  0  0  0  0  0
    2.0805    0.4868   -2.1226 N   0  0  0  0  0  0  0  0  0  0  0  0
    1.1338   -0.0029   -3.1241 C   0  0  0  0  0  0  0  0  0  0  0  0
    2.0276    1.9282   -1.9154 C   0  0  0  0  0  0  0  0  0  0  0  0
   -0.2888    0.3082   -2.6672 C   0  0  0  0  0  0  0  0  0  0  0  0
    0.6463    2.3189   -1.4046 C   0  0  0  0  0  0  0  0  0  0  0  0
   -0.4533    1.8028   -2.3448 C   0  0  0  0  0  0  0  0  0  0  0  0
   -0.3204    2.4863   -3.5292 F   0  0  0  0  0  0  0  0  0  0  0  0
   -1.8670    2.1208   -1.8003 C   0  0  0  0  0  0  0  0  0  0  0  0
   -2.2252    1.3728   -0.5917 N   0  0  0  0  0  0  0  0  0  0  0  0
   -3.5489    1.7569   -0.0807 C   0  0  0  0  0  0  0  0  0  0  0  0
   -3.7961    1.0869    1.2788 C   0  0  0  0  0  0  0  0  0  0  0  0
   -2.8511    1.6229    2.2193 O   0  0  0  0  0  0  0  0  0  0  0  0
   -2.3849    0.6655    3.0850 C   0  0  0  0  0  0  0  0  0  0  0  0
   -1.0076    0.3944    3.1166 C   0  0  0  0  0  0  0  0  0  0  0  0
   -3.2630    0.0270    3.9660 C   0  0  0  0  0  0  0  0  0  0  0  0
   -0.2276    1.0876    2.2253 O   0  0  0  0  0  0  0  0  0  0  0  0
   -0.5330   -0.5639    4.0174 C   0  0  0  0  0  0  0  0  0  0  0  0
   -2.7758   -0.9207    4.8630 C   0  0  0  0  0  0  0  0  0  0  0  0
    1.1831    0.9747    2.3848 C   0  0  0  0  0  0  0  0  0  0  0  0
   -1.4146   -1.2187    4.8849 C   0  0  0  0  0  0  0  0  0  0  0  0
    3.9802   -1.5725   -3.2445 H   0  0  0  0  0  0  0  0  0  0  0  0
    1.9141   -4.6702    0.0568 H   0  0  0  0  0  0  0  0  0  0  0  0
    1.7627   -2.2187    0.3917 H   0  0  0  0  0  0  0  0  0  0  0  0
    1.3581    0.4958   -4.0740 H   0  0  0  0  0  0  0  0  0  0  0  0
    1.2274   -1.0782   -3.2851 H   0  0  0  0  0  0  0  0  0  0  0  0
    2.7946    2.2510   -1.2040 H   0  0  0  0  0  0  0  0  0  0  0  0
    2.2426    2.4165   -2.8731 H   0  0  0  0  0  0  0  0  0  0  0  0
   -0.9881    0.0169   -3.4592 H   0  0  0  0  0  0  0  0  0  0  0  0
   -0.5129   -0.3001   -1.7826 H   0  0  0  0  0  0  0  0  0  0  0  0
    0.5917    3.4106   -1.3256 H   0  0  0  0  0  0  0  0  0  0  0  0
    0.5122    1.9042   -0.4014 H   0  0  0  0  0  0  0  0  0  0  0  0
   -1.9308    3.2005   -1.6134 H   0  0  0  0  0  0  0  0  0  0  0  0
   -2.5954    1.9032   -2.5916 H   0  0  0  0  0  0  0  0  0  0  0  0
   -1.5485    1.5469    0.1614 H   0  0  0  0  0  0  0  0  0  0  0  0
   -3.5965    2.8449    0.0465 H   0  0  0  0  0  0  0  0  0  0  0  0
   -4.3261    1.4477   -0.7875 H   0  0  0  0  0  0  0  0  0  0  0  0
   -4.8050    1.3312    1.6299 H   0  0  0  0  0  0  0  0  0  0  0  0
   -3.7144   -0.0037    1.1731 H   0  0  0  0  0  0  0  0  0  0  0  0
   -4.3201    0.2746    3.9646 H   0  0  0  0  0  0  0  0  0  0  0  0
    0.5181   -0.8269    4.0701 H   0  0  0  0  0  0  0  0  0  0  0  0
   -3.4546   -1.4213    5.5486 H   0  0  0  0  0  0  0  0  0  0  0  0
    1.4935    1.2493    3.3986 H   0  0  0  0  0  0  0  0  0  0  0  0
    1.6574    1.6790    1.6955 H   0  0  0  0  0  0  0  0  0  0  0  0
    1.5236   -0.0323    2.1248 H   0  0  0  0  0  0  0  0  0  0  0  0
   -1.0338   -1.9589    5.5847 H   0  0  0  0  0  0  0  0  0  0  0  0
  1  2  1  0  0  0  0
  2  3  2  0  0  0  0
  2  4  1  0  0  0  0
  3  5  1  0  0  0  0
  3  6  1  0  0  0  0
  4  7  2  0  0  0  0
  6  8  2  0  0  0  0
  7  9  1  0  0  0  0
  9 10  2  0  0  0  0
  9 11  1  0  0  0  0
 11 12  1  0  0  0  0
 11 13  1  0  0  0  0
 12 14  1  0  0  0  0
 13 15  1  0  0  0  0
 14 16  1  0  0  0  0
 16 17  1  0  0  0  0
 16 18  1  0  0  0  0
 18 19  1  0  0  0  0
 19 20  1  0  0  0  0
 20 21  1  0  0  0  0
 21 22  1  0  0  0  0
 22 23  1  0  0  0  0
 23 24  2  0  0  0  0
 23 25  1  0  0  0  0
 24 26  1  0  0  0  0
 24 27  1  0  0  0  0
 25 28  2  0  0  0  0
 26 29  1  0  0  0  0
 27 30  2  0  0  0  0
  7  8  1  0  0  0  0
 15 16  1  0  0  0  0
 28 30  1  0  0  0  0
  4 31  1  0  0  0  0
  6 32  1  0  0  0  0
  8 33  1  0  0  0  0
 12 34  1  0  0  0  0
 12 35  1  0  0  0  0
 13 36  1  0  0  0  0
 13 37  1  0  0  0  0
 14 38  1  0  0  0  0
 14 39  1  0  0  0  0
 15 40  1  0  0  0  0
 15 41  1  0  0  0  0
 18 42  1  0  0  0  0
 18 43  1  0  0  0  0
 19 44  1  0  0  0  0
 20 45  1  0  0  0  0
 20 46  1  0  0  0  0
 21 47  1  0  0  0  0
 21 48  1  0  0  0  0
 25 49  1  0  0  0  0
 27 50  1  0  0  0  0
 28 51  1  0  0  0  0
 29 52  1  0  0  0  0
 29 53  1  0  0  0  0
 29 54  1  0  0  0  0
 30 55  1  0  0  0  0
M  END
>  <Molecule ChEMBL ID>
CHEMBL4800575

>  <Molecule Name>


>  <Molecule Max Phase>
None

>  <Molecular Weight>
455.36

>  <#RO5 Violations>
0

>  <AlogP>
4.61

>  <Compound Key>
37

>  <Smiles>
COc1ccccc1OCCNCC1(F)CCN(C(=O)c2ccc(Cl)c(Cl)c2)CC1

>  <Standard Type>
Ki

>  <Standard Relation>
'='

>  <Standard Value>
0.3802

>  <Standard Units>
nM

>  <pChEMBL Value>
9.42

>  <Data Validity Comment>


>  <Comment>


>  <Uo Units>
UO_0000065

>  <Ligand Efficiency BEI>
20.69

>  <Ligand Efficiency LE>
0.43

>  <Ligand Efficiency LLE>
4.81

>  <Ligand Efficiency SEI>
18.54

>  <Potential Duplicate>
0

>  <Assay ChEMBL ID>
CHEMBL4670397

>  <Assay Description>
Displacement of [3H]8-OH-DPAT from human 5-HT1A receptor stably expressed in CHO-K1 cell membranes measured after 60 mins by Microbeta2 scintillation counting method

>  <Assay Type>
B

>  <BAO Format ID>
BAO_0000219

>  <BAO Label>
cell-based format

>  <Assay Organism>
Homo sapiens

>  <Assay Tissue ChEMBL ID>
None

>  <Assay Tissue Name>
None

>  <Assay Cell Type>
CHO-K1

>  <Assay Subcellular Fraction>
None

>  <Assay Parameters>


>  <Assay Variant Accession>


>  <Assay Variant Mutation>


>  <Target ChEMBL ID>
CHEMBL214

>  <Target Name>
Serotonin 1a (5-HT1a) receptor

>  <Target Organism>
Homo sapiens

>  <SmilesFragFp 3>


>  <Target Type>
SINGLE PROTEIN

>  <Document ChEMBL ID>
CHEMBL4665789

>  <Source ID>
1

>  <Source Description>
Scientific Literature

>  <Document Journal>
J Med Chem

>  <Document Year>
2020

>  <Cell ChEMBL ID>
None

>  <SmilesFragFp 4>


>  <Properties>
TIME = 1.0 hr

>  <Action Type>
AGONIST

>  <Row-ID>
5606

>  <Neighbor Similarity FragFp 95%>
0.9823; 0.97835; 0.98261; 0.97835; 0.9823; 1

>  <Neighbor Count>
6

>  <Neighbor>
1078; 2307; 2675; 5039; 5181; 5315

>  <Neighbor Analysis X>
0.54761666

>  <Neighbor Analysis Y>
0.20310648

>  <Row-ID 2>
5606

>  <Neighbor Similarity FragFp 95% 2>
0.9823; 0.97835; 0.98261; 0.97835; 0.9823; 1

>  <Neighbor Count 2>
6

>  <Neighbor 2>
1078; 2307; 2675; 5039; 5181; 5315

>  <Neighbor Analysis X 2>
-0.028017461

>  <Neighbor Analysis Y 2>
0.44485816

>  <SALI pChEMBL Value/FragFp>
83.055; 13.398; 29.325; 20.328; 77.97; 0

>  <MMFF94 Energy>


>  <MMFF94 Energy 2>
88.483

$$$$
CHEMBL4786067
Actelion Java MolfileCreator 1.0

 55 57  0  0  0  0  0  0  0  0999 V2000
    4.8243   -1.8472    2.3295 Cl  0  0  0  0  0  0  0  0  0  0  0  0
    4.9077   -2.8202    0.9121 C   0  0  0  0  0  0  0  0  0  0  0  0
    6.0568   -3.5569    0.6204 C   0  0  0  0  0  0  0  0  0  0  0  0
    3.8127   -2.8652    0.0511 C   0  0  0  0  0  0  0  0  0  0  0  0
    7.1184   -3.5201    1.4389 F   0  0  0  0  0  0  0  0  0  0  0  0
    6.1236   -4.3493   -0.5241 C   0  0  0  0  0  0  0  0  0  0  0  0
    3.8907   -3.6402   -1.1118 C   0  0  0  0  0  0  0  0  0  0  0  0
    5.0331   -4.3988   -1.3929 C   0  0  0  0  0  0  0  0  0  0  0  0
    2.7317   -3.7279   -2.0217 C   0  0  0  0  0  0  0  0  0  0  0  0
    2.2271   -4.8371   -2.1713 O   0  0  0  0  0  0  0  0  0  0  0  0
    2.2702   -2.5701   -2.6384 N   0  0  0  0  0  0  0  0  0  0  0  0
    1.0465   -2.6339   -3.4323 C   0  0  0  0  0  0  0  0  0  0  0  0
    2.9870   -1.2975   -2.7186 C   0  0  0  0  0  0  0  0  0  0  0  0
    0.0903   -1.5120   -3.0406 C   0  0  0  0  0  0  0  0  0  0  0  0
    2.0846   -0.1475   -2.2868 C   0  0  0  0  0  0  0  0  0  0  0  0
    0.7875   -0.1478   -3.1057 C   0  0  0  0  0  0  0  0  0  0  0  0
    1.1390    0.0721   -4.4150 F   0  0  0  0  0  0  0  0  0  0  0  0
   -0.1620    1.0070   -2.7089 C   0  0  0  0  0  0  0  0  0  0  0  0
   -0.6529    0.9569   -1.3239 N   0  0  0  0  0  0  0  0  0  0  0  0
   -1.6504    2.0103   -1.0885 C   0  0  0  0  0  0  0  0  0  0  0  0
   -2.2013    1.9604    0.3433 C   0  0  0  0  0  0  0  0  0  0  0  0
   -3.1176    3.0459    0.5030 O   0  0  0  0  0  0  0  0  0  0  0  0
   -3.7159    3.1774    1.7261 C   0  0  0  0  0  0  0  0  0  0  0  0
   -3.5249    2.3445    2.8296 C   0  0  0  0  0  0  0  0  0  0  0  0
   -4.5909    4.2594    1.8338 C   0  0  0  0  0  0  0  0  0  0  0  0
   -4.1989    2.5868    4.0337 C   0  0  0  0  0  0  0  0  0  0  0  0
   -5.2658    4.5078    3.0288 C   0  0  0  0  0  0  0  0  0  0  0  0
   -3.9171    1.6933    5.0320 O   0  0  0  0  0  0  0  0  0  0  0  0
   -5.0702    3.6721    4.1296 C   0  0  0  0  0  0  0  0  0  0  0  0
   -4.5855    1.8829    6.2729 C   0  0  0  0  0  0  0  0  0  0  0  0
    2.9049   -2.3142    0.2810 H   0  0  0  0  0  0  0  0  0  0  0  0
    7.0206   -4.9271   -0.7261 H   0  0  0  0  0  0  0  0  0  0  0  0
    5.0665   -5.0279   -2.2801 H   0  0  0  0  0  0  0  0  0  0  0  0
    1.3323   -2.5500   -4.4876 H   0  0  0  0  0  0  0  0  0  0  0  0
    0.5452   -3.5991   -3.3073 H   0  0  0  0  0  0  0  0  0  0  0  0
    3.9021   -1.3028   -2.1233 H   0  0  0  0  0  0  0  0  0  0  0  0
    3.2990   -1.1682   -3.7623 H   0  0  0  0  0  0  0  0  0  0  0  0
   -0.7697   -1.5284   -3.7199 H   0  0  0  0  0  0  0  0  0  0  0  0
   -0.2821   -1.6990   -2.0260 H   0  0  0  0  0  0  0  0  0  0  0  0
    2.6204    0.7973   -2.4327 H   0  0  0  0  0  0  0  0  0  0  0  0
    1.8654   -0.2481   -1.2175 H   0  0  0  0  0  0  0  0  0  0  0  0
    0.3546    1.9597   -2.8838 H   0  0  0  0  0  0  0  0  0  0  0  0
   -1.0119    0.9912   -3.4038 H   0  0  0  0  0  0  0  0  0  0  0  0
    0.1255    1.0948   -0.6788 H   0  0  0  0  0  0  0  0  0  0  0  0
   -1.2117    2.9998   -1.2691 H   0  0  0  0  0  0  0  0  0  0  0  0
   -2.4896    1.9059   -1.7876 H   0  0  0  0  0  0  0  0  0  0  0  0
   -2.7159    1.0046    0.5017 H   0  0  0  0  0  0  0  0  0  0  0  0
   -1.3734    2.0643    1.0557 H   0  0  0  0  0  0  0  0  0  0  0  0
   -2.8566    1.4908    2.7892 H   0  0  0  0  0  0  0  0  0  0  0  0
   -4.7480    4.9136    0.9798 H   0  0  0  0  0  0  0  0  0  0  0  0
   -5.9450    5.3533    3.1010 H   0  0  0  0  0  0  0  0  0  0  0  0
   -5.6112    3.8953    5.0428 H   0  0  0  0  0  0  0  0  0  0  0  0
   -4.3135    2.8424    6.7251 H   0  0  0  0  0  0  0  0  0  0  0  0
   -4.2589    1.0903    6.9529 H   0  0  0  0  0  0  0  0  0  0  0  0
   -5.6706    1.7939    6.1548 H   0  0  0  0  0  0  0  0  0  0  0  0
  1  2  1  0  0  0  0
  2  3  2  0  0  0  0
  2  4  1  0  0  0  0
  3  5  1  0  0  0  0
  3  6  1  0  0  0  0
  4  7  2  0  0  0  0
  6  8  2  0  0  0  0
  7  9  1  0  0  0  0
  9 10  2  0  0  0  0
  9 11  1  0  0  0  0
 11 12  1  0  0  0  0
 11 13  1  0  0  0  0
 12 14  1  0  0  0  0
 13 15  1  0  0  0  0
 14 16  1  0  0  0  0
 16 17  1  0  0  0  0
 16 18  1  0  0  0  0
 18 19  1  0  0  0  0
 19 20  1  0  0  0  0
 20 21  1  0  0  0  0
 21 22  1  0  0  0  0
 22 23  1  0  0  0  0
 23 24  2  0  0  0  0
 23 25  1  0  0  0  0
 24 26  1  0  0  0  0
 25 27  2  0  0  0  0
 26 28  1  0  0  0  0
 26 29  2  0  0  0  0
 28 30  1  0  0  0  0
  7  8  1  0  0  0  0
 15 16  1  0  0  0  0
 27 29  1  0  0  0  0
  4 31  1  0  0  0  0
  6 32  1  0  0  0  0
  8 33  1  0  0  0  0
 12 34  1  0  0  0  0
 12 35  1  0  0  0  0
 13 36  1  0  0  0  0
 13 37  1  0  0  0  0
 14 38  1  0  0  0  0
 14 39  1  0  0  0  0
 15 40  1  0  0  0  0
 15 41  1  0  0  0  0
 18 42  1  0  0  0  0
 18 43  1  0  0  0  0
 19 44  1  0  0  0  0
 20 45  1  0  0  0  0
 20 46  1  0  0  0  0
 21 47  1  0  0  0  0
 21 48  1  0  0  0  0
 24 49  1  0  0  0  0
 25 50  1  0  0  0  0
 27 51  1  0  0  0  0
 29 52  1  0  0  0  0
 30 53  1  0  0  0  0
 30 54  1  0  0  0  0
 30 55  1  0  0  0  0
M  END
>  <Molecule ChEMBL ID>
CHEMBL4786067

>  <Molecule Name>


>  <Molecule Max Phase>
None

>  <Molecular Weight>
438.90

>  <#RO5 Violations>
0

>  <AlogP>
4.10

>  <Compound Key>
38

>  <Smiles>
COc1cccc(OCCNCC2(F)CCN(C(=O)c3ccc(F)c(Cl)c3)CC2)c1

>  <Standard Type>
Ki

>  <Standard Relation>
'='

>  <Standard Value>
0.06026

>  <Standard Units>
nM

>  <pChEMBL Value>
10.22

>  <Data Validity Comment>


>  <Comment>


>  <Uo Units>
UO_0000065

>  <Ligand Efficiency BEI>
23.29

>  <Ligand Efficiency LE>
0.47

>  <Ligand Efficiency LLE>
6.12

>  <Ligand Efficiency SEI>
20.12

>  <Potential Duplicate>
0

>  <Assay ChEMBL ID>
CHEMBL4670397

>  <Assay Description>
Displacement of [3H]8-OH-DPAT from human 5-HT1A receptor stably expressed in CHO-K1 cell membranes measured after 60 mins by Microbeta2 scintillation counting method

>  <Assay Type>
B

>  <BAO Format ID>
BAO_0000219

>  <BAO Label>
cell-based format

>  <Assay Organism>
Homo sapiens

>  <Assay Tissue ChEMBL ID>
None

>  <Assay Tissue Name>
None

>  <Assay Cell Type>
CHO-K1

>  <Assay Subcellular Fraction>
None

>  <Assay Parameters>


>  <Assay Variant Accession>


>  <Assay Variant Mutation>


>  <Target ChEMBL ID>
CHEMBL214

>  <Target Name>
Serotonin 1a (5-HT1a) receptor

>  <Target Organism>
Homo sapiens

>  <SmilesFragFp 3>


>  <Target Type>
SINGLE PROTEIN

>  <Document ChEMBL ID>
CHEMBL4665789

>  <Source ID>
1

>  <Source Description>
Scientific Literature

>  <Document Journal>
J Med Chem

>  <Document Year>
2020

>  <Cell ChEMBL ID>
None

>  <SmilesFragFp 4>


>  <Properties>
TIME = 1.0 hr

>  <Action Type>
AGONIST

>  <Row-ID>
5018

>  <Neighbor Similarity FragFp 95%>
0.9907; 0.97727; 0.9907; 0.97706; 1; 1; 0.9907; 1; 0.98174; 1; 0.97706; 1; 1; 0.99078

>  <Neighbor Count>
14

>  <Neighbor>
5820; 5184; 5182; 5183; 5036; 5035; 941; 2302; 2305; 2306; 2678; 4308; 4547; 5037

>  <Neighbor Analysis X>
0.29734045

>  <Neighbor Analysis Y>
-0.16010617

>  <Row-ID 2>
5018

>  <Neighbor Similarity FragFp 95% 2>
0.9907; 0.97727; 0.97706; 0.9907; 0.99078; 1; 1; 0.9907; 1; 0.98174; 1; 0.97706; 1; 1

>  <Neighbor Count 2>
14

>  <Neighbor 2>
5820; 5184; 5183; 5182; 5037; 5036; 5035; 941; 2302; 2305; 2306; 2678; 4308; 4547

>  <Neighbor Analysis X 2>
0.47618166

>  <Neighbor Analysis Y 2>
-0.3093976

>  <SALI pChEMBL Value/FragFp>
1.075; 29.04; 5.232; 1.075; 33.635; 0; 0; 65.575; 0; 13.688; 0; 78.916; 0; 0

>  <MMFF94 Energy>


>  <MMFF94 Energy 2>
73.755

$$$$
CHEMBL4790662
Actelion Java MolfileCreator 1.0

 55 57  0  0  0  0  0  0  0  0999 V2000
   -0.8880   -8.5003   -3.5554 Cl  0  0  0  0  0  0  0  0  0  0  0  0
   -0.4635   -7.8962   -1.9933 C   0  0  0  0  0  0  0  0  0  0  0  0
   -0.6891   -8.6276   -0.8188 C   0  0  0  0  0  0  0  0  0  0  0  0
    0.1229   -6.6297   -1.9270 C   0  0  0  0  0  0  0  0  0  0  0  0
   -1.4146  -10.1952   -0.8300 Cl  0  0  0  0  0  0  0  0  0  0  0  0
   -0.3185   -8.0921    0.4200 C   0  0  0  0  0  0  0  0  0  0  0  0
    0.4650   -6.0911   -0.6825 C   0  0  0  0  0  0  0  0  0  0  0  0
    0.2662   -6.8264    0.4893 C   0  0  0  0  0  0  0  0  0  0  0  0
    1.1192   -4.7697   -0.5947 C   0  0  0  0  0  0  0  0  0  0  0  0
    2.2266   -4.7335   -0.0655 O   0  0  0  0  0  0  0  0  0  0  0  0
    0.4656   -3.6545   -1.1076 N   0  0  0  0  0  0  0  0  0  0  0  0
   -0.9412   -3.5856   -1.4995 C   0  0  0  0  0  0  0  0  0  0  0  0
    1.1886   -2.3892   -1.1958 C   0  0  0  0  0  0  0  0  0  0  0  0
   -1.6754   -2.5440   -0.6604 C   0  0  0  0  0  0  0  0  0  0  0  0
    0.5148   -1.3177   -0.3485 C   0  0  0  0  0  0  0  0  0  0  0  0
   -0.9674   -1.1854   -0.7180 C   0  0  0  0  0  0  0  0  0  0  0  0
   -1.0452   -0.7400   -2.0134 F   0  0  0  0  0  0  0  0  0  0  0  0
   -1.7088   -0.1588    0.1694 C   0  0  0  0  0  0  0  0  0  0  0  0
   -1.1109    1.1794    0.0926 N   0  0  0  0  0  0  0  0  0  0  0  0
   -1.8841    2.1663    0.8577 C   0  0  0  0  0  0  0  0  0  0  0  0
   -1.2780    3.5773    0.7653 C   0  0  0  0  0  0  0  0  0  0  0  0
   -0.0497    3.6139    1.4941 O   0  0  0  0  0  0  0  0  0  0  0  0
    0.6395    4.7948    1.4939 C   0  0  0  0  0  0  0  0  0  0  0  0
    0.2266    5.9895    0.9026 C   0  0  0  0  0  0  0  0  0  0  0  0
    1.8625    4.7548    2.1647 C   0  0  0  0  0  0  0  0  0  0  0  0
    1.0266    7.1372    0.9754 C   0  0  0  0  0  0  0  0  0  0  0  0
    2.6652    5.8924    2.2420 C   0  0  0  0  0  0  0  0  0  0  0  0
    0.5003    8.2372    0.3525 O   0  0  0  0  0  0  0  0  0  0  0  0
    2.2481    7.0845    1.6475 C   0  0  0  0  0  0  0  0  0  0  0  0
    1.2764    9.4283    0.3876 C   0  0  0  0  0  0  0  0  0  0  0  0
    0.3217   -6.0663   -2.8354 H   0  0  0  0  0  0  0  0  0  0  0  0
   -0.4750   -8.6600    1.3345 H   0  0  0  0  0  0  0  0  0  0  0  0
    0.5736   -6.4172    1.4499 H   0  0  0  0  0  0  0  0  0  0  0  0
   -0.9774   -3.3251   -2.5635 H   0  0  0  0  0  0  0  0  0  0  0  0
   -1.4446   -4.5461   -1.3737 H   0  0  0  0  0  0  0  0  0  0  0  0
    2.2315   -2.5063   -0.8845 H   0  0  0  0  0  0  0  0  0  0  0  0
    1.1995   -2.0925   -2.2515 H   0  0  0  0  0  0  0  0  0  0  0  0
   -2.7012   -2.4508   -1.0356 H   0  0  0  0  0  0  0  0  0  0  0  0
   -1.7310   -2.8898    0.3796 H   0  0  0  0  0  0  0  0  0  0  0  0
    1.0403   -0.3704   -0.5120 H   0  0  0  0  0  0  0  0  0  0  0  0
    0.6113   -1.5763    0.7134 H   0  0  0  0  0  0  0  0  0  0  0  0
   -2.7511   -0.1005   -0.1680 H   0  0  0  0  0  0  0  0  0  0  0  0
   -1.7064   -0.5033    1.2105 H   0  0  0  0  0  0  0  0  0  0  0  0
   -1.0421    1.4629   -0.8866 H   0  0  0  0  0  0  0  0  0  0  0  0
   -2.9101    2.2048    0.4736 H   0  0  0  0  0  0  0  0  0  0  0  0
   -1.9164    1.8610    1.9101 H   0  0  0  0  0  0  0  0  0  0  0  0
   -1.1126    3.8417   -0.2865 H   0  0  0  0  0  0  0  0  0  0  0  0
   -1.9879    4.2830    1.2137 H   0  0  0  0  0  0  0  0  0  0  0  0
   -0.7178    6.0656    0.3747 H   0  0  0  0  0  0  0  0  0  0  0  0
    2.1917    3.8278    2.6277 H   0  0  0  0  0  0  0  0  0  0  0  0
    3.6164    5.8480    2.7657 H   0  0  0  0  0  0  0  0  0  0  0  0
    2.8977    7.9492    1.7274 H   0  0  0  0  0  0  0  0  0  0  0  0
    1.4185    9.7767    1.4159 H   0  0  0  0  0  0  0  0  0  0  0  0
    0.7238   10.2031   -0.1525 H   0  0  0  0  0  0  0  0  0  0  0  0
    2.2364    9.2892   -0.1201 H   0  0  0  0  0  0  0  0  0  0  0  0
  1  2  1  0  0  0  0
  2  3  2  0  0  0  0
  2  4  1  0  0  0  0
  3  5  1  0  0  0  0
  3  6  1  0  0  0  0
  4  7  2  0  0  0  0
  6  8  2  0  0  0  0
  7  9  1  0  0  0  0
  9 10  2  0  0  0  0
  9 11  1  0  0  0  0
 11 12  1  0  0  0  0
 11 13  1  0  0  0  0
 12 14  1  0  0  0  0
 13 15  1  0  0  0  0
 14 16  1  0  0  0  0
 16 17  1  0  0  0  0
 16 18  1  0  0  0  0
 18 19  1  0  0  0  0
 19 20  1  0  0  0  0
 20 21  1  0  0  0  0
 21 22  1  0  0  0  0
 22 23  1  0  0  0  0
 23 24  2  0  0  0  0
 23 25  1  0  0  0  0
 24 26  1  0  0  0  0
 25 27  2  0  0  0  0
 26 28  1  0  0  0  0
 26 29  2  0  0  0  0
 28 30  1  0  0  0  0
  7  8  1  0  0  0  0
 15 16  1  0  0  0  0
 27 29  1  0  0  0  0
  4 31  1  0  0  0  0
  6 32  1  0  0  0  0
  8 33  1  0  0  0  0
 12 34  1  0  0  0  0
 12 35  1  0  0  0  0
 13 36  1  0  0  0  0
 13 37  1  0  0  0  0
 14 38  1  0  0  0  0
 14 39  1  0  0  0  0
 15 40  1  0  0  0  0
 15 41  1  0  0  0  0
 18 42  1  0  0  0  0
 18 43  1  0  0  0  0
 19 44  1  0  0  0  0
 20 45  1  0  0  0  0
 20 46  1  0  0  0  0
 21 47  1  0  0  0  0
 21 48  1  0  0  0  0
 24 49  1  0  0  0  0
 25 50  1  0  0  0  0
 27 51  1  0  0  0  0
 29 52  1  0  0  0  0
 30 53  1  0  0  0  0
 30 54  1  0  0  0  0
 30 55  1  0  0  0  0
M  END
>  <Molecule ChEMBL ID>
CHEMBL4790662

>  <Molecule Name>


>  <Molecule Max Phase>
None

>  <Molecular Weight>
455.36

>  <#RO5 Violations>
0

>  <AlogP>
4.61

>  <Compound Key>
39

>  <Smiles>
COc1cccc(OCCNCC2(F)CCN(C(=O)c3ccc(Cl)c(Cl)c3)CC2)c1

>  <Standard Type>
Ki

>  <Standard Relation>
'='

>  <Standard Value>
0.03162

>  <Standard Units>
nM

>  <pChEMBL Value>
10.50

>  <Data Validity Comment>


>  <Comment>


>  <Uo Units>
UO_0000065

>  <Ligand Efficiency BEI>
23.06

>  <Ligand Efficiency LE>
0.48

>  <Ligand Efficiency LLE>
5.89

>  <Ligand Efficiency SEI>
20.67

>  <Potential Duplicate>
0

>  <Assay ChEMBL ID>
CHEMBL4670397

>  <Assay Description>
Displacement of [3H]8-OH-DPAT from human 5-HT1A receptor stably expressed in CHO-K1 cell membranes measured after 60 mins by Microbeta2 scintillation counting method

>  <Assay Type>
B

>  <BAO Format ID>
BAO_0000219

>  <BAO Label>
cell-based format

>  <Assay Organism>
Homo sapiens

>  <Assay Tissue ChEMBL ID>
None

>  <Assay Tissue Name>
None

>  <Assay Cell Type>
CHO-K1

>  <Assay Subcellular Fraction>
None

>  <Assay Parameters>


>  <Assay Variant Accession>


>  <Assay Variant Mutation>


>  <Target ChEMBL ID>
CHEMBL214

>  <Target Name>
Serotonin 1a (5-HT1a) receptor

>  <Target Organism>
Homo sapiens

>  <SmilesFragFp 3>


>  <Target Type>
SINGLE PROTEIN

>  <Document ChEMBL ID>
CHEMBL4665789

>  <Source ID>
1

>  <Source Description>
Scientific Literature

>  <Document Journal>
J Med Chem

>  <Document Year>
2020

>  <Cell ChEMBL ID>
None

>  <SmilesFragFp 4>


>  <Properties>
TIME = 1.0 hr

>  <Action Type>
AGONIST

>  <Row-ID>
2302

>  <Neighbor Similarity FragFp 95%>
0.9907; 0.97727; 0.9907; 0.97706; 1; 1; 1; 0.99078; 1; 1; 0.97706; 0.98174; 0.9907; 1

>  <Neighbor Count>
14

>  <Neighbor>
5820; 5184; 5182; 5183; 5036; 5035; 5018; 5037; 4547; 4308; 2678; 2305; 941; 2306

>  <Neighbor Analysis X>
0.33116353

>  <Neighbor Analysis Y>
-0.18266462

>  <Row-ID 2>
2302

>  <Neighbor Similarity FragFp 95% 2>
0.9907; 0.97727; 0.97706; 0.9907; 0.99078; 1; 1; 1; 1; 1; 0.97706; 1; 0.98174; 0.9907

>  <Neighbor Count 2>
14

>  <Neighbor 2>
5820; 5184; 5183; 5182; 5037; 5036; 5035; 5018; 4547; 4308; 2678; 2306; 2305; 941

>  <Neighbor Analysis X 2>
0.47616708

>  <Neighbor Analysis Y 2>
-0.33401915

>  <SALI pChEMBL Value/FragFp>
31.175; 41.36; 17.44; 31.175; 3.255; 0; 0; 0; 0; 0; 91.124; 0; 1.6425; 35.475

>  <MMFF94 Energy>


>  <MMFF94 Energy 2>
77.124

$$$$
CHEMBL4781985
Actelion Java MolfileCreator 1.0

 56 58  0  0  0  0  0  0  0  0999 V2000
   -3.3661   -6.7409   -1.4416 Cl  0  0  0  0  0  0  0  0  0  0  0  0
   -1.6948   -6.8777   -1.8303 C   0  0  0  0  0  0  0  0  0  0  0  0
   -1.0943   -8.1309   -1.9621 C   0  0  0  0  0  0  0  0  0  0  0  0
   -0.9407   -5.7197   -2.0120 C   0  0  0  0  0  0  0  0  0  0  0  0
   -1.8081   -9.2526   -1.7873 F   0  0  0  0  0  0  0  0  0  0  0  0
    0.2574   -8.2429   -2.2828 C   0  0  0  0  0  0  0  0  0  0  0  0
    0.4222   -5.8335   -2.3088 C   0  0  0  0  0  0  0  0  0  0  0  0
    1.0206   -7.0893   -2.4650 C   0  0  0  0  0  0  0  0  0  0  0  0
    1.2330   -4.6220   -2.5377 C   0  0  0  0  0  0  0  0  0  0  0  0
    1.6987   -4.4715   -3.6636 O   0  0  0  0  0  0  0  0  0  0  0  0
    1.4126   -3.7234   -1.4920 N   0  0  0  0  0  0  0  0  0  0  0  0
    2.1339   -2.4807   -1.7434 C   0  0  0  0  0  0  0  0  0  0  0  0
    1.0808   -3.9592   -0.0880 C   0  0  0  0  0  0  0  0  0  0  0  0
    1.3350   -1.2835   -1.2381 C   0  0  0  0  0  0  0  0  0  0  0  0
    0.2328   -2.8150    0.4518 C   0  0  0  0  0  0  0  0  0  0  0  0
    0.9303   -1.4643    0.2306 C   0  0  0  0  0  0  0  0  0  0  0  0
    2.0747   -1.4751    0.9825 F   0  0  0  0  0  0  0  0  0  0  0  0
    0.0219   -0.3174    0.7459 C   0  0  0  0  0  0  0  0  0  0  0  0
    0.6105    1.0261    0.6269 N   0  0  0  0  0  0  0  0  0  0  0  0
   -0.2869    2.0467    1.1807 C   0  0  0  0  0  0  0  0  0  0  0  0
    0.3397    3.4463    1.1195 C   0  0  0  0  0  0  0  0  0  0  0  0
   -0.6193    4.3786    1.6210 O   0  0  0  0  0  0  0  0  0  0  0  0
   -0.3521    5.7183    1.4728 C   0  0  0  0  0  0  0  0  0  0  0  0
   -1.4213    6.6258    1.6667 C   0  0  0  0  0  0  0  0  0  0  0  0
    0.9319    6.2018    1.1661 C   0  0  0  0  0  0  0  0  0  0  0  0
   -2.7309    6.2892    1.9841 N   0  0  0  0  0  0  0  0  0  0  0  0
   -1.1455    7.9996    1.5145 C   0  0  0  0  0  0  0  0  0  0  0  0
    1.1702    7.5691    1.0269 C   0  0  0  0  0  0  0  0  0  0  0  0
   -3.2190    4.9513    2.2115 C   0  0  0  0  0  0  0  0  0  0  0  0
    0.1299    8.4697    1.1979 C   0  0  0  0  0  0  0  0  0  0  0  0
   -1.4037   -4.7401   -1.9335 H   0  0  0  0  0  0  0  0  0  0  0  0
    0.7032   -9.2268   -2.3953 H   0  0  0  0  0  0  0  0  0  0  0  0
    2.0726   -7.1641   -2.7332 H   0  0  0  0  0  0  0  0  0  0  0  0
    3.0997   -2.5477   -1.2283 H   0  0  0  0  0  0  0  0  0  0  0  0
    2.3433   -2.3538   -2.8104 H   0  0  0  0  0  0  0  0  0  0  0  0
    0.5674   -4.9112    0.0592 H   0  0  0  0  0  0  0  0  0  0  0  0
    2.0271   -4.0284    0.4626 H   0  0  0  0  0  0  0  0  0  0  0  0
    1.9539   -0.3880   -1.3606 H   0  0  0  0  0  0  0  0  0  0  0  0
    0.4368   -1.1590   -1.8559 H   0  0  0  0  0  0  0  0  0  0  0  0
    0.0619   -2.9784    1.5223 H   0  0  0  0  0  0  0  0  0  0  0  0
   -0.7443   -2.8173   -0.0474 H   0  0  0  0  0  0  0  0  0  0  0  0
   -0.9329   -0.3444    0.2057 H   0  0  0  0  0  0  0  0  0  0  0  0
   -0.1866   -0.5064    1.8065 H   0  0  0  0  0  0  0  0  0  0  0  0
    0.8027    1.2413   -0.3507 H   0  0  0  0  0  0  0  0  0  0  0  0
   -1.2386    2.0561    0.6343 H   0  0  0  0  0  0  0  0  0  0  0  0
   -0.5284    1.8193    2.2267 H   0  0  0  0  0  0  0  0  0  0  0  0
    1.2418    3.4666    1.7424 H   0  0  0  0  0  0  0  0  0  0  0  0
    0.5933    3.6855    0.0790 H   0  0  0  0  0  0  0  0  0  0  0  0
    1.7769    5.5334    1.0397 H   0  0  0  0  0  0  0  0  0  0  0  0
   -3.3934    7.0435    2.1104 H   0  0  0  0  0  0  0  0  0  0  0  0
   -1.9422    8.7282    1.6478 H   0  0  0  0  0  0  0  0  0  0  0  0
    2.1686    7.9266    0.7897 H   0  0  0  0  0  0  0  0  0  0  0  0
   -4.2844    4.9943    2.4612 H   0  0  0  0  0  0  0  0  0  0  0  0
   -2.7096    4.4762    3.0557 H   0  0  0  0  0  0  0  0  0  0  0  0
   -3.1245    4.3324    1.3139 H   0  0  0  0  0  0  0  0  0  0  0  0
    0.3049    9.5368    1.0917 H   0  0  0  0  0  0  0  0  0  0  0  0
  1  2  1  0  0  0  0
  2  3  2  0  0  0  0
  2  4  1  0  0  0  0
  3  5  1  0  0  0  0
  3  6  1  0  0  0  0
  4  7  2  0  0  0  0
  6  8  2  0  0  0  0
  7  9  1  0  0  0  0
  9 10  2  0  0  0  0
  9 11  1  0  0  0  0
 11 12  1  0  0  0  0
 11 13  1  0  0  0  0
 12 14  1  0  0  0  0
 13 15  1  0  0  0  0
 14 16  1  0  0  0  0
 16 17  1  0  0  0  0
 16 18  1  0  0  0  0
 18 19  1  0  0  0  0
 19 20  1  0  0  0  0
 20 21  1  0  0  0  0
 21 22  1  0  0  0  0
 22 23  1  0  0  0  0
 23 24  2  0  0  0  0
 23 25  1  0  0  0  0
 24 26  1  0  0  0  0
 24 27  1  0  0  0  0
 25 28  2  0  0  0  0
 26 29  1  0  0  0  0
 27 30  2  0  0  0  0
  7  8  1  0  0  0  0
 15 16  1  0  0  0  0
 28 30  1  0  0  0  0
  4 31  1  0  0  0  0
  6 32  1  0  0  0  0
  8 33  1  0  0  0  0
 12 34  1  0  0  0  0
 12 35  1  0  0  0  0
 13 36  1  0  0  0  0
 13 37  1  0  0  0  0
 14 38  1  0  0  0  0
 14 39  1  0  0  0  0
 15 40  1  0  0  0  0
 15 41  1  0  0  0  0
 18 42  1  0  0  0  0
 18 43  1  0  0  0  0
 19 44  1  0  0  0  0
 20 45  1  0  0  0  0
 20 46  1  0  0  0  0
 21 47  1  0  0  0  0
 21 48  1  0  0  0  0
 25 49  1  0  0  0  0
 26 50  1  0  0  0  0
 27 51  1  0  0  0  0
 28 52  1  0  0  0  0
 29 53  1  0  0  0  0
 29 54  1  0  0  0  0
 29 55  1  0  0  0  0
 30 56  1  0  0  0  0
M  END
>  <Molecule ChEMBL ID>
CHEMBL4781985

>  <Molecule Name>


>  <Molecule Max Phase>
None

>  <Molecular Weight>
437.92

>  <#RO5 Violations>
0

>  <AlogP>
4.13

>  <Compound Key>
44

>  <Smiles>
CNc1ccccc1OCCNCC1(F)CCN(C(=O)c2ccc(F)c(Cl)c2)CC1

>  <Standard Type>
Ki

>  <Standard Relation>
'='

>  <Standard Value>
0.1175

>  <Standard Units>
nM

>  <pChEMBL Value>
9.93

>  <Data Validity Comment>


>  <Comment>


>  <Uo Units>
UO_0000065

>  <Ligand Efficiency BEI>
22.68

>  <Ligand Efficiency LE>
0.45

>  <Ligand Efficiency LLE>
5.80

>  <Ligand Efficiency SEI>
18.53

>  <Potential Duplicate>
0

>  <Assay ChEMBL ID>
CHEMBL4670397

>  <Assay Description>
Displacement of [3H]8-OH-DPAT from human 5-HT1A receptor stably expressed in CHO-K1 cell membranes measured after 60 mins by Microbeta2 scintillation counting method

>  <Assay Type>
B

>  <BAO Format ID>
BAO_0000219

>  <BAO Label>
cell-based format

>  <Assay Organism>
Homo sapiens

>  <Assay Tissue ChEMBL ID>
None

>  <Assay Tissue Name>
None

>  <Assay Cell Type>
CHO-K1

>  <Assay Subcellular Fraction>
None

>  <Assay Parameters>


>  <Assay Variant Accession>


>  <Assay Variant Mutation>


>  <Target ChEMBL ID>
CHEMBL214

>  <Target Name>
Serotonin 1a (5-HT1a) receptor

>  <Target Organism>
Homo sapiens

>  <SmilesFragFp 3>


>  <Target Type>
SINGLE PROTEIN

>  <Document ChEMBL ID>
CHEMBL4665789

>  <Source ID>
1

>  <Source Description>
Scientific Literature

>  <Document Journal>
J Med Chem

>  <Document Year>
2020

>  <Cell ChEMBL ID>
None

>  <SmilesFragFp 4>


>  <Properties>
TIME = 1.0 hr

>  <Action Type>
AGONIST

>  <Row-ID>
2675

>  <Neighbor Similarity FragFp 95%>
0.98261; 0.98261; 0.96522; 0.9617; 0.96522; 0.9617

>  <Neighbor Count>
6

>  <Neighbor>
5606; 5315; 5181; 5039; 1078; 2307

>  <Neighbor Analysis X>
0.5563752

>  <Neighbor Analysis Y>
0.22965735

>  <Row-ID 2>
2675

>  <Neighbor Similarity FragFp 95% 2>
0.98261; 0.98261; 0.96522; 0.9617; 0.96522; 0.9617

>  <Neighbor Count 2>
6

>  <Neighbor 2>
5606; 5315; 5181; 5039; 1078; 2307

>  <Neighbor Analysis X 2>
0.019009337

>  <Neighbor Analysis Y 2>
0.43107608

>  <SALI pChEMBL Value/FragFp>
29.325; 33.35; 25.013; 1.8278; 27.6; 5.7444

>  <MMFF94 Energy>


>  <MMFF94 Energy 2>
89.27

$$$$
CHEMBL4796345
Actelion Java MolfileCreator 1.0

 56 58  0  0  0  0  0  0  0  0999 V2000
   -1.4409   -8.3471   -2.7230 Cl  0  0  0  0  0  0  0  0  0  0  0  0
   -0.9555   -7.8240   -1.1566 C   0  0  0  0  0  0  0  0  0  0  0  0
   -1.3233   -8.5458   -0.0201 C   0  0  0  0  0  0  0  0  0  0  0  0
   -0.1886   -6.6669   -1.0306 C   0  0  0  0  0  0  0  0  0  0  0  0
   -2.0633   -9.6590   -0.1266 F   0  0  0  0  0  0  0  0  0  0  0  0
   -0.9252   -8.1285    1.2483 C   0  0  0  0  0  0  0  0  0  0  0  0
    0.1890   -6.2329    0.2457 C   0  0  0  0  0  0  0  0  0  0  0  0
   -0.1585   -6.9709    1.3839 C   0  0  0  0  0  0  0  0  0  0  0  0
    1.0329   -5.0309    0.4054 C   0  0  0  0  0  0  0  0  0  0  0  0
    2.1106   -5.1808    0.9745 O   0  0  0  0  0  0  0  0  0  0  0  0
    0.5782   -3.8132   -0.0885 N   0  0  0  0  0  0  0  0  0  0  0  0
   -0.7881   -3.5127   -0.5131 C   0  0  0  0  0  0  0  0  0  0  0  0
    1.4890   -2.6726   -0.1078 C   0  0  0  0  0  0  0  0  0  0  0  0
   -1.3793   -2.4042    0.3531 C   0  0  0  0  0  0  0  0  0  0  0  0
    0.9633   -1.5441    0.7699 C   0  0  0  0  0  0  0  0  0  0  0  0
   -0.4697   -1.1700    0.3726 C   0  0  0  0  0  0  0  0  0  0  0  0
   -0.4397   -0.6673   -0.9031 F   0  0  0  0  0  0  0  0  0  0  0  0
   -1.0711   -0.0791    1.2891 C   0  0  0  0  0  0  0  0  0  0  0  0
   -0.2713    1.1524    1.2959 N   0  0  0  0  0  0  0  0  0  0  0  0
   -0.9165    2.2127    2.0822 C   0  0  0  0  0  0  0  0  0  0  0  0
   -0.1499    3.5374    1.9507 C   0  0  0  0  0  0  0  0  0  0  0  0
   -0.2855    4.0066    0.6058 O   0  0  0  0  0  0  0  0  0  0  0  0
    0.3316    5.1874    0.2926 C   0  0  0  0  0  0  0  0  0  0  0  0
    0.1620    5.5995   -1.0367 C   0  0  0  0  0  0  0  0  0  0  0  0
    1.0820    5.9739    1.1626 C   0  0  0  0  0  0  0  0  0  0  0  0
    0.7269    6.7854   -1.5209 C   0  0  0  0  0  0  0  0  0  0  0  0
    1.6533    7.1595    0.7030 C   0  0  0  0  0  0  0  0  0  0  0  0
    0.5812    7.2243   -2.8229 N   0  0  0  0  0  0  0  0  0  0  0  0
    1.4746    7.5573   -0.6242 C   0  0  0  0  0  0  0  0  0  0  0  0
   -0.1581    6.5093   -3.8356 C   0  0  0  0  0  0  0  0  0  0  0  0
    0.1215   -6.1110   -1.9114 H   0  0  0  0  0  0  0  0  0  0  0  0
   -1.2073   -8.7125    2.1193 H   0  0  0  0  0  0  0  0  0  0  0  0
    0.1754   -6.6472    2.3677 H   0  0  0  0  0  0  0  0  0  0  0  0
   -0.7502   -3.2076   -1.5651 H   0  0  0  0  0  0  0  0  0  0  0  0
   -1.4366   -4.3879   -0.4422 H   0  0  0  0  0  0  0  0  0  0  0  0
    2.4923   -2.9614    0.2211 H   0  0  0  0  0  0  0  0  0  0  0  0
    1.5750   -2.3405   -1.1493 H   0  0  0  0  0  0  0  0  0  0  0  0
   -2.3665   -2.1386   -0.0424 H   0  0  0  0  0  0  0  0  0  0  0  0
   -1.5191   -2.7784    1.3751 H   0  0  0  0  0  0  0  0  0  0  0  0
    1.6322   -0.6836    0.6594 H   0  0  0  0  0  0  0  0  0  0  0  0
    0.9879   -1.8561    1.8214 H   0  0  0  0  0  0  0  0  0  0  0  0
   -2.0803    0.1549    0.9277 H   0  0  0  0  0  0  0  0  0  0  0  0
   -1.1570   -0.4646    2.3121 H   0  0  0  0  0  0  0  0  0  0  0  0
   -0.1614    1.4842    0.3316 H   0  0  0  0  0  0  0  0  0  0  0  0
   -1.9441    2.3633    1.7303 H   0  0  0  0  0  0  0  0  0  0  0  0
   -0.9452    1.9187    3.1371 H   0  0  0  0  0  0  0  0  0  0  0  0
   -0.5925    4.2648    2.6418 H   0  0  0  0  0  0  0  0  0  0  0  0
    0.9067    3.3819    2.2009 H   0  0  0  0  0  0  0  0  0  0  0  0
   -0.4273    4.9652   -1.6921 H   0  0  0  0  0  0  0  0  0  0  0  0
    1.2432    5.6958    2.1978 H   0  0  0  0  0  0  0  0  0  0  0  0
    2.2407    7.7773    1.3771 H   0  0  0  0  0  0  0  0  0  0  0  0
    1.0290    8.0914   -3.0919 H   0  0  0  0  0  0  0  0  0  0  0  0
    1.9315    8.4861   -0.9562 H   0  0  0  0  0  0  0  0  0  0  0  0
   -0.1189    7.0648   -4.7778 H   0  0  0  0  0  0  0  0  0  0  0  0
   -1.2113    6.4035   -3.5564 H   0  0  0  0  0  0  0  0  0  0  0  0
    0.2731    5.5194   -4.0156 H   0  0  0  0  0  0  0  0  0  0  0  0
  1  2  1  0  0  0  0
  2  3  2  0  0  0  0
  2  4  1  0  0  0  0
  3  5  1  0  0  0  0
  3  6  1  0  0  0  0
  4  7  2  0  0  0  0
  6  8  2  0  0  0  0
  7  9  1  0  0  0  0
  9 10  2  0  0  0  0
  9 11  1  0  0  0  0
 11 12  1  0  0  0  0
 11 13  1  0  0  0  0
 12 14  1  0  0  0  0
 13 15  1  0  0  0  0
 14 16  1  0  0  0  0
 16 17  1  0  0  0  0
 16 18  1  0  0  0  0
 18 19  1  0  0  0  0
 19 20  1  0  0  0  0
 20 21  1  0  0  0  0
 21 22  1  0  0  0  0
 22 23  1  0  0  0  0
 23 24  2  0  0  0  0
 23 25  1  0  0  0  0
 24 26  1  0  0  0  0
 25 27  2  0  0  0  0
 26 28  1  0  0  0  0
 26 29  2  0  0  0  0
 28 30  1  0  0  0  0
  7  8  1  0  0  0  0
 15 16  1  0  0  0  0
 27 29  1  0  0  0  0
  4 31  1  0  0  0  0
  6 32  1  0  0  0  0
  8 33  1  0  0  0  0
 12 34  1  0  0  0  0
 12 35  1  0  0  0  0
 13 36  1  0  0  0  0
 13 37  1  0  0  0  0
 14 38  1  0  0  0  0
 14 39  1  0  0  0  0
 15 40  1  0  0  0  0
 15 41  1  0  0  0  0
 18 42  1  0  0  0  0
 18 43  1  0  0  0  0
 19 44  1  0  0  0  0
 20 45  1  0  0  0  0
 20 46  1  0  0  0  0
 21 47  1  0  0  0  0
 21 48  1  0  0  0  0
 24 49  1  0  0  0  0
 25 50  1  0  0  0  0
 27 51  1  0  0  0  0
 28 52  1  0  0  0  0
 29 53  1  0  0  0  0
 30 54  1  0  0  0  0
 30 55  1  0  0  0  0
 30 56  1  0  0  0  0
M  END
>  <Molecule ChEMBL ID>
CHEMBL4796345

>  <Molecule Name>


>  <Molecule Max Phase>
None

>  <Molecular Weight>
437.92

>  <#RO5 Violations>
0

>  <AlogP>
4.13

>  <Compound Key>
45

>  <Smiles>
CNc1cccc(OCCNCC2(F)CCN(C(=O)c3ccc(F)c(Cl)c3)CC2)c1

>  <Standard Type>
Ki

>  <Standard Relation>
'='

>  <Standard Value>
0.03388

>  <Standard Units>
nM

>  <pChEMBL Value>
10.47

>  <Data Validity Comment>


>  <Comment>


>  <Uo Units>
UO_0000065

>  <Ligand Efficiency BEI>
23.91

>  <Ligand Efficiency LE>
0.48

>  <Ligand Efficiency LLE>
6.34

>  <Ligand Efficiency SEI>
19.53

>  <Potential Duplicate>
0

>  <Assay ChEMBL ID>
CHEMBL4670397

>  <Assay Description>
Displacement of [3H]8-OH-DPAT from human 5-HT1A receptor stably expressed in CHO-K1 cell membranes measured after 60 mins by Microbeta2 scintillation counting method

>  <Assay Type>
B

>  <BAO Format ID>
BAO_0000219

>  <BAO Label>
cell-based format

>  <Assay Organism>
Homo sapiens

>  <Assay Tissue ChEMBL ID>
None

>  <Assay Tissue Name>
None

>  <Assay Cell Type>
CHO-K1

>  <Assay Subcellular Fraction>
None

>  <Assay Parameters>


>  <Assay Variant Accession>


>  <Assay Variant Mutation>


>  <Target ChEMBL ID>
CHEMBL214

>  <Target Name>
Serotonin 1a (5-HT1a) receptor

>  <Target Organism>
Homo sapiens

>  <SmilesFragFp 3>


>  <Target Type>
SINGLE PROTEIN

>  <Document ChEMBL ID>
CHEMBL4665789

>  <Source ID>
1

>  <Source Description>
Scientific Literature

>  <Document Journal>
J Med Chem

>  <Document Year>
2020

>  <Cell ChEMBL ID>
None

>  <SmilesFragFp 4>


>  <Properties>
TIME = 1.0 hr

>  <Action Type>
AGONIST

>  <Row-ID>
2305

>  <Neighbor Similarity FragFp 95%>
0.98174; 0.98174; 0.97768; 0.98174; 0.98174; 0.98174; 0.98649; 0.97768; 0.98174; 0.98174

>  <Neighbor Count>
10

>  <Neighbor>
5036; 5035; 5038; 5018; 4547; 4308; 2100; 2101; 2302; 2306

>  <Neighbor Analysis X>
0.36714244

>  <Neighbor Analysis Y>
-0.15621576

>  <Row-ID 2>
2305

>  <Neighbor Similarity FragFp 95% 2>
0.97768; 0.98174; 0.98174; 0.98174; 0.98174; 0.98174; 0.98174; 0.98649; 0.97768; 0.98174

>  <Neighbor Count 2>
10

>  <Neighbor 2>
5038; 5036; 5035; 5018; 4547; 4308; 2306; 2100; 2101; 2302

>  <Neighbor Analysis X 2>
0.49848154

>  <Neighbor Analysis Y 2>
-0.34661692

>  <SALI pChEMBL Value/FragFp>
8.96; 7.1175; 8.2125; 13.688; 16.972; 12.045; 33.945; 70.3; 17.472; 1.6425

>  <MMFF94 Energy>


>  <MMFF94 Energy 2>
65.154

$$$$
CHEMBL4756233
Actelion Java MolfileCreator 1.0

 55 58  0  0  0  0  0  0  0  0999 V2000
    4.1970   -2.2583    6.1386 Cl  0  0  0  0  0  0  0  0  0  0  0  0
    4.3688   -3.0778    4.6347 C   0  0  0  0  0  0  0  0  0  0  0  0
    5.4799   -3.8853    4.3864 C   0  0  0  0  0  0  0  0  0  0  0  0
    3.3839   -2.9267    3.6602 C   0  0  0  0  0  0  0  0  0  0  0  0
    6.4355   -4.0372    5.3147 F   0  0  0  0  0  0  0  0  0  0  0  0
    5.6170   -4.5544    3.1716 C   0  0  0  0  0  0  0  0  0  0  0  0
    3.5353   -3.5791    2.4315 C   0  0  0  0  0  0  0  0  0  0  0  0
    4.6368   -4.4081    2.1896 C   0  0  0  0  0  0  0  0  0  0  0  0
    2.4894   -3.4604    1.3976 C   0  0  0  0  0  0  0  0  0  0  0  0
    1.8890   -4.4882    1.0968 O   0  0  0  0  0  0  0  0  0  0  0  0
    2.2324   -2.2135    0.8393 N   0  0  0  0  0  0  0  0  0  0  0  0
    1.1357   -2.0767   -0.1128 C   0  0  0  0  0  0  0  0  0  0  0  0
    3.0584   -1.0167    0.9889 C   0  0  0  0  0  0  0  0  0  0  0  0
    0.2247   -0.9181    0.2789 C   0  0  0  0  0  0  0  0  0  0  0  0
    2.2027    0.1612    1.4355 C   0  0  0  0  0  0  0  0  0  0  0  0
    1.0241    0.3767    0.4746 C   0  0  0  0  0  0  0  0  0  0  0  0
    1.5550    0.7277   -0.7378 F   0  0  0  0  0  0  0  0  0  0  0  0
    0.1467    1.5517    0.9804 C   0  0  0  0  0  0  0  0  0  0  0  0
   -1.0005    1.8585    0.1199 N   0  0  0  0  0  0  0  0  0  0  0  0
   -1.7394    3.0405    0.5849 C   0  0  0  0  0  0  0  0  0  0  0  0
   -2.9965    3.3000   -0.2621 C   0  0  0  0  0  0  0  0  0  0  0  0
   -2.6159    3.7832   -1.5574 O   0  0  0  0  0  0  0  0  0  0  0  0
   -3.4986    3.3265   -2.5088 C   0  0  0  0  0  0  0  0  0  0  0  0
   -3.1930    2.1932   -3.2900 C   0  0  0  0  0  0  0  0  0  0  0  0
   -4.6890    4.0272   -2.7298 C   0  0  0  0  0  0  0  0  0  0  0  0
   -4.1209    1.7772   -4.2467 C   0  0  0  0  0  0  0  0  0  0  0  0
   -2.0924    1.2927   -3.3564 C   0  0  0  0  0  0  0  0  0  0  0  0
   -5.5931    3.5874   -3.6949 C   0  0  0  0  0  0  0  0  0  0  0  0
   -3.5971    0.6604   -4.8588 N   0  0  0  0  0  0  0  0  0  0  0  0
   -5.3297    2.4503   -4.4678 C   0  0  0  0  0  0  0  0  0  0  0  0
   -2.3715    0.3579   -4.3268 C   0  0  0  0  0  0  0  0  0  0  0  0
    2.5048   -2.3182    3.8518 H   0  0  0  0  0  0  0  0  0  0  0  0
    6.4813   -5.1896    3.0025 H   0  0  0  0  0  0  0  0  0  0  0  0
    4.7238   -4.9394    1.2441 H   0  0  0  0  0  0  0  0  0  0  0  0
    1.5753   -1.9069   -1.1029 H   0  0  0  0  0  0  0  0  0  0  0  0
    0.5472   -2.9979   -0.1729 H   0  0  0  0  0  0  0  0  0  0  0  0
    3.8825   -1.1705    1.6879 H   0  0  0  0  0  0  0  0  0  0  0  0
    3.5139   -0.8119    0.0123 H   0  0  0  0  0  0  0  0  0  0  0  0
   -0.5229   -0.7947   -0.5121 H   0  0  0  0  0  0  0  0  0  0  0  0
   -0.3047   -1.1691    1.2065 H   0  0  0  0  0  0  0  0  0  0  0  0
    2.8299    1.0595    1.4676 H   0  0  0  0  0  0  0  0  0  0  0  0
    1.8290   -0.0228    2.4505 H   0  0  0  0  0  0  0  0  0  0  0  0
    0.7824    2.4439    1.0391 H   0  0  0  0  0  0  0  0  0  0  0  0
   -0.2102    1.3263    1.9931 H   0  0  0  0  0  0  0  0  0  0  0  0
   -1.6303    1.0623    0.0413 H   0  0  0  0  0  0  0  0  0  0  0  0
   -2.0501    2.8919    1.6255 H   0  0  0  0  0  0  0  0  0  0  0  0
   -1.0847    3.9181    0.5360 H   0  0  0  0  0  0  0  0  0  0  0  0
   -3.6068    2.3870   -0.3098 H   0  0  0  0  0  0  0  0  0  0  0  0
   -3.5955    4.0813    0.2209 H   0  0  0  0  0  0  0  0  0  0  0  0
   -4.9055    4.9192   -2.1494 H   0  0  0  0  0  0  0  0  0  0  0  0
   -1.1924    1.3404   -2.7557 H   0  0  0  0  0  0  0  0  0  0  0  0
   -6.5163    4.1398   -3.8552 H   0  0  0  0  0  0  0  0  0  0  0  0
   -4.0520    0.1478   -5.6011 H   0  0  0  0  0  0  0  0  0  0  0  0
   -6.0361    2.1149   -5.2202 H   0  0  0  0  0  0  0  0  0  0  0  0
   -1.8010   -0.4864   -4.6886 H   0  0  0  0  0  0  0  0  0  0  0  0
  1  2  1  0  0  0  0
  2  3  2  0  0  0  0
  2  4  1  0  0  0  0
  3  5  1  0  0  0  0
  3  6  1  0  0  0  0
  4  7  2  0  0  0  0
  6  8  2  0  0  0  0
  7  9  1  0  0  0  0
  9 10  2  0  0  0  0
  9 11  1  0  0  0  0
 11 12  1  0  0  0  0
 11 13  1  0  0  0  0
 12 14  1  0  0  0  0
 13 15  1  0  0  0  0
 14 16  1  0  0  0  0
 16 17  1  0  0  0  0
 16 18  1  0  0  0  0
 18 19  1  0  0  0  0
 19 20  1  0  0  0  0
 20 21  1  0  0  0  0
 21 22  1  0  0  0  0
 22 23  1  0  0  0  0
 23 24  2  0  0  0  0
 23 25  1  0  0  0  0
 24 26  1  0  0  0  0
 24 27  1  0  0  0  0
 25 28  2  0  0  0  0
 26 29  1  0  0  0  0
 26 30  2  0  0  0  0
 27 31  2  0  0  0  0
  7  8  1  0  0  0  0
 15 16  1  0  0  0  0
 28 30  1  0  0  0  0
 29 31  1  0  0  0  0
  4 32  1  0  0  0  0
  6 33  1  0  0  0  0
  8 34  1  0  0  0  0
 12 35  1  0  0  0  0
 12 36  1  0  0  0  0
 13 37  1  0  0  0  0
 13 38  1  0  0  0  0
 14 39  1  0  0  0  0
 14 40  1  0  0  0  0
 15 41  1  0  0  0  0
 15 42  1  0  0  0  0
 18 43  1  0  0  0  0
 18 44  1  0  0  0  0
 19 45  1  0  0  0  0
 20 46  1  0  0  0  0
 20 47  1  0  0  0  0
 21 48  1  0  0  0  0
 21 49  1  0  0  0  0
 25 50  1  0  0  0  0
 27 51  1  0  0  0  0
 28 52  1  0  0  0  0
 29 53  1  0  0  0  0
 30 54  1  0  0  0  0
 31 55  1  0  0  0  0
M  END
>  <Molecule ChEMBL ID>
CHEMBL4756233

>  <Molecule Name>


>  <Molecule Max Phase>
None

>  <Molecular Weight>
447.91

>  <#RO5 Violations>
0

>  <AlogP>
4.57

>  <Compound Key>
56

>  <Smiles>
O=C(c1ccc(F)c(Cl)c1)N1CCC(F)(CNCCOc2cccc3[nH]ccc23)CC1

>  <Standard Type>
Ki

>  <Standard Relation>
'='

>  <Standard Value>
0.0001585

>  <Standard Units>
nM

>  <pChEMBL Value>


>  <Data Validity Comment>
Outside typical range

>  <Comment>


>  <Uo Units>
UO_0000065

>  <Ligand Efficiency BEI>


>  <Ligand Efficiency LE>


>  <Ligand Efficiency LLE>


>  <Ligand Efficiency SEI>


>  <Potential Duplicate>
0

>  <Assay ChEMBL ID>
CHEMBL4670397

>  <Assay Description>
Displacement of [3H]8-OH-DPAT from human 5-HT1A receptor stably expressed in CHO-K1 cell membranes measured after 60 mins by Microbeta2 scintillation counting method

>  <Assay Type>
B

>  <BAO Format ID>
BAO_0000219

>  <BAO Label>
cell-based format

>  <Assay Organism>
Homo sapiens

>  <Assay Tissue ChEMBL ID>
None

>  <Assay Tissue Name>
None

>  <Assay Cell Type>
CHO-K1

>  <Assay Subcellular Fraction>
None

>  <Assay Parameters>


>  <Assay Variant Accession>


>  <Assay Variant Mutation>


>  <Target ChEMBL ID>
CHEMBL214

>  <Target Name>
Serotonin 1a (5-HT1a) receptor

>  <Target Organism>
Homo sapiens

>  <SmilesFragFp 3>


>  <Target Type>
SINGLE PROTEIN

>  <Document ChEMBL ID>
CHEMBL4665789

>  <Source ID>
1

>  <Source Description>
Scientific Literature

>  <Document Journal>
J Med Chem

>  <Document Year>
2020

>  <Cell ChEMBL ID>
None

>  <SmilesFragFp 4>


>  <Properties>
TIME = 1.0 hr

>  <Action Type>
AGONIST

>  <Row-ID>
4962

>  <Neighbor Similarity FragFp 95%>


>  <Neighbor Count>
0

>  <Neighbor>


>  <Neighbor Analysis X>
-0.9054522

>  <Neighbor Analysis Y>
-0.24653481

>  <Row-ID 2>
4962

>  <Neighbor Similarity FragFp 95% 2>


>  <Neighbor Count 2>
0

>  <Neighbor 2>


>  <Neighbor Analysis X 2>
0.7168621

>  <Neighbor Analysis Y 2>
-0.43006873

>  <SALI pChEMBL Value/FragFp>


>  <MMFF94 Energy>


>  <MMFF94 Energy 2>
84.291

$$$$
CHEMBL4757755
Actelion Java MolfileCreator 1.0

 57 60  0  0  0  0  0  0  0  0999 V2000
    2.2564    0.0805   -3.4668 Cl  0  0  0  0  0  0  0  0  0  0  0  0
    2.6907   -1.4909   -2.9136 C   0  0  0  0  0  0  0  0  0  0  0  0
    3.3893   -2.3707   -3.7416 C   0  0  0  0  0  0  0  0  0  0  0  0
    2.3307   -1.8829   -1.6258 C   0  0  0  0  0  0  0  0  0  0  0  0
    3.7392   -2.0070   -4.9840 F   0  0  0  0  0  0  0  0  0  0  0  0
    3.7405   -3.6432   -3.2942 C   0  0  0  0  0  0  0  0  0  0  0  0
    2.6569   -3.1721   -1.1881 C   0  0  0  0  0  0  0  0  0  0  0  0
    3.3790   -4.0464   -2.0082 C   0  0  0  0  0  0  0  0  0  0  0  0
    2.3000   -3.6003    0.1792 C   0  0  0  0  0  0  0  0  0  0  0  0
    3.2266   -3.8808    0.9340 O   0  0  0  0  0  0  0  0  0  0  0  0
    0.9582   -3.6427    0.5390 N   0  0  0  0  0  0  0  0  0  0  0  0
    0.6013   -3.8785    1.9345 C   0  0  0  0  0  0  0  0  0  0  0  0
   -0.1811   -3.5625   -0.3733 C   0  0  0  0  0  0  0  0  0  0  0  0
   -0.3216   -2.7720    2.4374 C   0  0  0  0  0  0  0  0  0  0  0  0
   -1.1114   -2.4321    0.0481 C   0  0  0  0  0  0  0  0  0  0  0  0
   -1.5359   -2.6029    1.5139 C   0  0  0  0  0  0  0  0  0  0  0  0
   -2.2688   -3.7625    1.5854 F   0  0  0  0  0  0  0  0  0  0  0  0
   -2.4704   -1.4628    1.9833 C   0  0  0  0  0  0  0  0  0  0  0  0
   -1.8462   -0.1360    2.0183 N   0  0  0  0  0  0  0  0  0  0  0  0
   -2.8017    0.8955    2.4519 C   0  0  0  0  0  0  0  0  0  0  0  0
   -2.1755    2.2936    2.3350 C   0  0  0  0  0  0  0  0  0  0  0  0
   -1.8519    2.5282    0.9593 O   0  0  0  0  0  0  0  0  0  0  0  0
   -1.2023    3.6927    0.6713 C   0  0  0  0  0  0  0  0  0  0  0  0
   -0.7275    3.8258   -0.6251 C   0  0  0  0  0  0  0  0  0  0  0  0
   -0.9912    4.7601    1.5481 C   0  0  0  0  0  0  0  0  0  0  0  0
   -0.0557    4.9738   -1.0526 C   0  0  0  0  0  0  0  0  0  0  0  0
   -0.8553    2.8804   -1.7769 C   0  0  0  0  0  0  0  0  0  0  0  0
   -0.3354    5.9269    1.1141 C   0  0  0  0  0  0  0  0  0  0  0  0
    0.2841    4.9193   -2.4021 N   0  0  0  0  0  0  0  0  0  0  0  0
    0.1254    6.0420   -0.1992 C   0  0  0  0  0  0  0  0  0  0  0  0
    0.0838    3.5338   -2.8128 C   0  0  0  0  0  0  0  0  0  0  0  0
    1.8098   -1.1965   -0.9641 H   0  0  0  0  0  0  0  0  0  0  0  0
    4.2969   -4.3082   -3.9479 H   0  0  0  0  0  0  0  0  0  0  0  0
    3.6602   -5.0318   -1.6423 H   0  0  0  0  0  0  0  0  0  0  0  0
    0.1057   -4.8548    1.9917 H   0  0  0  0  0  0  0  0  0  0  0  0
    1.4927   -3.9268    2.5680 H   0  0  0  0  0  0  0  0  0  0  0  0
    0.1321   -3.4308   -1.4109 H   0  0  0  0  0  0  0  0  0  0  0  0
   -0.7032   -4.5261   -0.3277 H   0  0  0  0  0  0  0  0  0  0  0  0
   -0.6528   -3.0213    3.4521 H   0  0  0  0  0  0  0  0  0  0  0  0
    0.2466   -1.8354    2.4918 H   0  0  0  0  0  0  0  0  0  0  0  0
   -1.9943   -2.4394   -0.6011 H   0  0  0  0  0  0  0  0  0  0  0  0
   -0.5976   -1.4749   -0.0955 H   0  0  0  0  0  0  0  0  0  0  0  0
   -3.3500   -1.4477    1.3267 H   0  0  0  0  0  0  0  0  0  0  0  0
   -2.8418   -1.7179    2.9842 H   0  0  0  0  0  0  0  0  0  0  0  0
   -1.5156    0.1337    1.0889 H   0  0  0  0  0  0  0  0  0  0  0  0
   -3.6946    0.8578    1.8162 H   0  0  0  0  0  0  0  0  0  0  0  0
   -3.1007    0.7177    3.4906 H   0  0  0  0  0  0  0  0  0  0  0  0
   -2.9087    3.0340    2.6761 H   0  0  0  0  0  0  0  0  0  0  0  0
   -1.2727    2.3474    2.9564 H   0  0  0  0  0  0  0  0  0  0  0  0
   -1.3384    4.7310    2.5758 H   0  0  0  0  0  0  0  0  0  0  0  0
   -0.5316    1.8650   -1.5311 H   0  0  0  0  0  0  0  0  0  0  0  0
   -1.8882    2.8671   -2.1403 H   0  0  0  0  0  0  0  0  0  0  0  0
   -0.1951    6.7536    1.8064 H   0  0  0  0  0  0  0  0  0  0  0  0
    1.0151    5.5000   -2.7862 H   0  0  0  0  0  0  0  0  0  0  0  0
    0.6132    6.9496   -0.5364 H   0  0  0  0  0  0  0  0  0  0  0  0
   -0.3320    3.4744   -3.8236 H   0  0  0  0  0  0  0  0  0  0  0  0
    1.0526    3.0201   -2.8172 H   0  0  0  0  0  0  0  0  0  0  0  0
  1  2  1  0  0  0  0
  2  3  2  0  0  0  0
  2  4  1  0  0  0  0
  3  5  1  0  0  0  0
  3  6  1  0  0  0  0
  4  7  2  0  0  0  0
  6  8  2  0  0  0  0
  7  9  1  0  0  0  0
  9 10  2  0  0  0  0
  9 11  1  0  0  0  0
 11 12  1  0  0  0  0
 11 13  1  0  0  0  0
 12 14  1  0  0  0  0
 13 15  1  0  0  0  0
 14 16  1  0  0  0  0
 16 17  1  0  0  0  0
 16 18  1  0  0  0  0
 18 19  1  0  0  0  0
 19 20  1  0  0  0  0
 20 21  1  0  0  0  0
 21 22  1  0  0  0  0
 22 23  1  0  0  0  0
 23 24  2  0  0  0  0
 23 25  1  0  0  0  0
 24 26  1  0  0  0  0
 24 27  1  0  0  0  0
 25 28  2  0  0  0  0
 26 29  1  0  0  0  0
 26 30  2  0  0  0  0
 27 31  1  0  0  0  0
  7  8  1  0  0  0  0
 15 16  1  0  0  0  0
 28 30  1  0  0  0  0
 29 31  1  0  0  0  0
  4 32  1  0  0  0  0
  6 33  1  0  0  0  0
  8 34  1  0  0  0  0
 12 35  1  0  0  0  0
 12 36  1  0  0  0  0
 13 37  1  0  0  0  0
 13 38  1  0  0  0  0
 14 39  1  0  0  0  0
 14 40  1  0  0  0  0
 15 41  1  0  0  0  0
 15 42  1  0  0  0  0
 18 43  1  0  0  0  0
 18 44  1  0  0  0  0
 19 45  1  0  0  0  0
 20 46  1  0  0  0  0
 20 47  1  0  0  0  0
 21 48  1  0  0  0  0
 21 49  1  0  0  0  0
 25 50  1  0  0  0  0
 27 51  1  0  0  0  0
 27 52  1  0  0  0  0
 28 53  1  0  0  0  0
 29 54  1  0  0  0  0
 30 55  1  0  0  0  0
 31 56  1  0  0  0  0
 31 57  1  0  0  0  0
M  END
>  <Molecule ChEMBL ID>
CHEMBL4757755

>  <Molecule Name>


>  <Molecule Max Phase>
None

>  <Molecular Weight>
449.93

>  <#RO5 Violations>
0

>  <AlogP>
4.06

>  <Compound Key>
57

>  <Smiles>
O=C(c1ccc(F)c(Cl)c1)N1CCC(F)(CNCCOc2cccc3c2CCN3)CC1

>  <Standard Type>
Ki

>  <Standard Relation>
'='

>  <Standard Value>
0.04467

>  <Standard Units>
nM

>  <pChEMBL Value>
10.35

>  <Data Validity Comment>


>  <Comment>


>  <Uo Units>
UO_0000065

>  <Ligand Efficiency BEI>
23.00

>  <Ligand Efficiency LE>
0.46

>  <Ligand Efficiency LLE>
6.29

>  <Ligand Efficiency SEI>
19.31

>  <Potential Duplicate>
0

>  <Assay ChEMBL ID>
CHEMBL4670397

>  <Assay Description>
Displacement of [3H]8-OH-DPAT from human 5-HT1A receptor stably expressed in CHO-K1 cell membranes measured after 60 mins by Microbeta2 scintillation counting method

>  <Assay Type>
B

>  <BAO Format ID>
BAO_0000219

>  <BAO Label>
cell-based format

>  <Assay Organism>
Homo sapiens

>  <Assay Tissue ChEMBL ID>
None

>  <Assay Tissue Name>
None

>  <Assay Cell Type>
CHO-K1

>  <Assay Subcellular Fraction>
None

>  <Assay Parameters>


>  <Assay Variant Accession>


>  <Assay Variant Mutation>


>  <Target ChEMBL ID>
CHEMBL214

>  <Target Name>
Serotonin 1a (5-HT1a) receptor

>  <Target Organism>
Homo sapiens

>  <SmilesFragFp 3>


>  <Target Type>
SINGLE PROTEIN

>  <Document ChEMBL ID>
CHEMBL4665789

>  <Source ID>
1

>  <Source Description>
Scientific Literature

>  <Document Journal>
J Med Chem

>  <Document Year>
2020

>  <Cell ChEMBL ID>
None

>  <SmilesFragFp 4>


>  <Properties>
TIME = 1.0 hr

>  <Action Type>
AGONIST

>  <Row-ID>
5463

>  <Neighbor Similarity FragFp 95%>


>  <Neighbor Count>
0

>  <Neighbor>


>  <Neighbor Analysis X>
-0.4881005

>  <Neighbor Analysis Y>
0.8561644

>  <Row-ID 2>
5463

>  <Neighbor Similarity FragFp 95% 2>


>  <Neighbor Count 2>
0

>  <Neighbor 2>


>  <Neighbor Analysis X 2>
0.70697147

>  <Neighbor Analysis Y 2>
0.19940282

>  <SALI pChEMBL Value/FragFp>


>  <MMFF94 Energy>


>  <MMFF94 Energy 2>
79.254

$$$$
CHEMBL4777581
Actelion Java MolfileCreator 1.0

 55 57  0  0  0  0  0  0  0  0999 V2000
    2.4912   -3.5373    3.8593 Cl  0  0  0  0  0  0  0  0  0  0  0  0
    2.4649   -4.4967    2.4306 C   0  0  0  0  0  0  0  0  0  0  0  0
    3.5609   -5.2893    2.0858 C   0  0  0  0  0  0  0  0  0  0  0  0
    1.3333   -4.4778    1.6168 C   0  0  0  0  0  0  0  0  0  0  0  0
    4.6562   -5.3158    2.8592 F   0  0  0  0  0  0  0  0  0  0  0  0
    3.5380   -6.0748    0.9350 C   0  0  0  0  0  0  0  0  0  0  0  0
    1.3207   -5.2487    0.4487 C   0  0  0  0  0  0  0  0  0  0  0  0
    2.4098   -6.0624    0.1145 C   0  0  0  0  0  0  0  0  0  0  0  0
    0.1198   -5.2778   -0.4089 C   0  0  0  0  0  0  0  0  0  0  0  0
   -0.4514   -6.3586   -0.5265 O   0  0  0  0  0  0  0  0  0  0  0  0
   -0.3040   -4.1031   -1.0201 N   0  0  0  0  0  0  0  0  0  0  0  0
   -1.5468   -4.1139   -1.7834 C   0  0  0  0  0  0  0  0  0  0  0  0
    0.4631   -2.8614   -1.1196 C   0  0  0  0  0  0  0  0  0  0  0  0
   -2.4466   -2.9605   -1.3558 C   0  0  0  0  0  0  0  0  0  0  0  0
   -0.3770   -1.6740   -0.6670 C   0  0  0  0  0  0  0  0  0  0  0  0
   -1.7045   -1.6213   -1.4350 C   0  0  0  0  0  0  0  0  0  0  0  0
   -1.4180   -1.3869   -2.7563 F   0  0  0  0  0  0  0  0  0  0  0  0
   -2.6204   -0.4738   -0.9504 C   0  0  0  0  0  0  0  0  0  0  0  0
   -1.9770    0.8403   -1.0780 N   0  0  0  0  0  0  0  0  0  0  0  0
   -2.8877    1.9289   -0.6995 C   0  0  0  0  0  0  0  0  0  0  0  0
   -2.2231    3.3101   -0.8315 C   0  0  0  0  0  0  0  0  0  0  0  0
   -1.2411    3.4621    0.1949 O   0  0  0  0  0  0  0  0  0  0  0  0
   -0.5527    4.6421    0.2376 C   0  0  0  0  0  0  0  0  0  0  0  0
    0.3792    4.7350    1.2747 C   0  0  0  0  0  0  0  0  0  0  0  0
   -0.7067    5.7148   -0.6413 C   0  0  0  0  0  0  0  0  0  0  0  0
    1.1620    5.8853    1.4332 C   0  0  0  0  0  0  0  0  0  0  0  0
    0.0611    6.8721   -0.4803 C   0  0  0  0  0  0  0  0  0  0  0  0
    2.1344    5.9238    2.5569 C   0  0  0  0  0  0  0  0  0  0  0  0
    0.9925    6.9615    0.5556 C   0  0  0  0  0  0  0  0  0  0  0  0
    1.9987    5.2219    3.5509 O   0  0  0  0  0  0  0  0  0  0  0  0
    3.2124    6.7550    2.4338 N   0  0  0  0  0  0  0  0  0  0  0  0
    0.4675   -3.8800    1.8882 H   0  0  0  0  0  0  0  0  0  0  0  0
    4.3948   -6.6960    0.6916 H   0  0  0  0  0  0  0  0  0  0  0  0
    2.3727   -6.6865   -0.7760 H   0  0  0  0  0  0  0  0  0  0  0  0
   -1.2851   -4.0303   -2.8449 H   0  0  0  0  0  0  0  0  0  0  0  0
   -2.0823   -5.0600   -1.6544 H   0  0  0  0  0  0  0  0  0  0  0  0
    1.3923   -2.9053   -0.5484 H   0  0  0  0  0  0  0  0  0  0  0  0
    0.7520   -2.7448   -2.1714 H   0  0  0  0  0  0  0  0  0  0  0  0
   -3.3286   -2.9422   -2.0064 H   0  0  0  0  0  0  0  0  0  0  0  0
   -2.7929   -3.1327   -0.3288 H   0  0  0  0  0  0  0  0  0  0  0  0
    0.2031   -0.7600   -0.8357 H   0  0  0  0  0  0  0  0  0  0  0  0
   -0.5734   -1.7531    0.4095 H   0  0  0  0  0  0  0  0  0  0  0  0
   -3.5346   -0.4806   -1.5569 H   0  0  0  0  0  0  0  0  0  0  0  0
   -2.9030   -0.6456    0.0952 H   0  0  0  0  0  0  0  0  0  0  0  0
   -1.6564    0.9631   -2.0403 H   0  0  0  0  0  0  0  0  0  0  0  0
   -3.7727    1.9061   -1.3459 H   0  0  0  0  0  0  0  0  0  0  0  0
   -3.2093    1.7866    0.3389 H   0  0  0  0  0  0  0  0  0  0  0  0
   -1.7643    3.4082   -1.8231 H   0  0  0  0  0  0  0  0  0  0  0  0
   -2.9988    4.0761   -0.7093 H   0  0  0  0  0  0  0  0  0  0  0  0
    0.4968    3.8993    1.9627 H   0  0  0  0  0  0  0  0  0  0  0  0
   -1.4197    5.6863   -1.4586 H   0  0  0  0  0  0  0  0  0  0  0  0
   -0.0749    7.7093   -1.1611 H   0  0  0  0  0  0  0  0  0  0  0  0
    1.5531    7.8829    0.6773 H   0  0  0  0  0  0  0  0  0  0  0  0
    3.4311    7.2854    1.6049 H   0  0  0  0  0  0  0  0  0  0  0  0
    3.8727    6.7645    3.2004 H   0  0  0  0  0  0  0  0  0  0  0  0
  1  2  1  0  0  0  0
  2  3  2  0  0  0  0
  2  4  1  0  0  0  0
  3  5  1  0  0  0  0
  3  6  1  0  0  0  0
  4  7  2  0  0  0  0
  6  8  2  0  0  0  0
  7  9  1  0  0  0  0
  9 10  2  0  0  0  0
  9 11  1  0  0  0  0
 11 12  1  0  0  0  0
 11 13  1  0  0  0  0
 12 14  1  0  0  0  0
 13 15  1  0  0  0  0
 14 16  1  0  0  0  0
 16 17  1  0  0  0  0
 16 18  1  0  0  0  0
 18 19  1  0  0  0  0
 19 20  1  0  0  0  0
 20 21  1  0  0  0  0
 21 22  1  0  0  0  0
 22 23  1  0  0  0  0
 23 24  2  0  0  0  0
 23 25  1  0  0  0  0
 24 26  1  0  0  0  0
 25 27  2  0  0  0  0
 26 28  1  0  0  0  0
 26 29  2  0  0  0  0
 28 30  2  0  0  0  0
 28 31  1  0  0  0  0
  7  8  1  0  0  0  0
 15 16  1  0  0  0  0
 27 29  1  0  0  0  0
  4 32  1  0  0  0  0
  6 33  1  0  0  0  0
  8 34  1  0  0  0  0
 12 35  1  0  0  0  0
 12 36  1  0  0  0  0
 13 37  1  0  0  0  0
 13 38  1  0  0  0  0
 14 39  1  0  0  0  0
 14 40  1  0  0  0  0
 15 41  1  0  0  0  0
 15 42  1  0  0  0  0
 18 43  1  0  0  0  0
 18 44  1  0  0  0  0
 19 45  1  0  0  0  0
 20 46  1  0  0  0  0
 20 47  1  0  0  0  0
 21 48  1  0  0  0  0
 21 49  1  0  0  0  0
 24 50  1  0  0  0  0
 25 51  1  0  0  0  0
 27 52  1  0  0  0  0
 29 53  1  0  0  0  0
 31 54  1  0  0  0  0
 31 55  1  0  0  0  0
M  END
>  <Molecule ChEMBL ID>
CHEMBL4777581

>  <Molecule Name>


>  <Molecule Max Phase>
None

>  <Molecular Weight>
451.90

>  <#RO5 Violations>
0

>  <AlogP>
3.19

>  <Compound Key>
43

>  <Smiles>
NC(=O)c1cccc(OCCNCC2(F)CCN(C(=O)c3ccc(F)c(Cl)c3)CC2)c1

>  <Standard Type>
Ki

>  <Standard Relation>
'='

>  <Standard Value>
0.02951

>  <Standard Units>
nM

>  <pChEMBL Value>
10.53

>  <Data Validity Comment>


>  <Comment>


>  <Uo Units>
UO_0000065

>  <Ligand Efficiency BEI>
23.30

>  <Ligand Efficiency LE>
0.46

>  <Ligand Efficiency LLE>
7.34

>  <Ligand Efficiency SEI>
12.44

>  <Potential Duplicate>
0

>  <Assay ChEMBL ID>
CHEMBL4670397

>  <Assay Description>
Displacement of [3H]8-OH-DPAT from human 5-HT1A receptor stably expressed in CHO-K1 cell membranes measured after 60 mins by Microbeta2 scintillation counting method

>  <Assay Type>
B

>  <BAO Format ID>
BAO_0000219

>  <BAO Label>
cell-based format

>  <Assay Organism>
Homo sapiens

>  <Assay Tissue ChEMBL ID>
None

>  <Assay Tissue Name>
None

>  <Assay Cell Type>
CHO-K1

>  <Assay Subcellular Fraction>
None

>  <Assay Parameters>


>  <Assay Variant Accession>


>  <Assay Variant Mutation>


>  <Target ChEMBL ID>
CHEMBL214

>  <Target Name>
Serotonin 1a (5-HT1a) receptor

>  <Target Organism>
Homo sapiens

>  <SmilesFragFp 3>


>  <Target Type>
SINGLE PROTEIN

>  <Document ChEMBL ID>
CHEMBL4665789

>  <Source ID>
1

>  <Source Description>
Scientific Literature

>  <Document Journal>
J Med Chem

>  <Document Year>
2020

>  <Cell ChEMBL ID>
None

>  <SmilesFragFp 4>


>  <Properties>
TIME = 1.0 hr

>  <Action Type>
AGONIST

>  <Row-ID>
5037

>  <Neighbor Similarity FragFp 95%>
0.98157; 0.98157; 0.98157; 0.99078; 0.99078; 0.99078; 0.99078; 0.99078; 0.99078; 0.99078

>  <Neighbor Count>
10

>  <Neighbor>
5820; 5182; 941; 2302; 2306; 4308; 4547; 5018; 5035; 5036

>  <Neighbor Analysis X>
0.28793612

>  <Neighbor Analysis Y>
-0.18431084

>  <Row-ID 2>
5037

>  <Neighbor Similarity FragFp 95% 2>
0.98157; 0.98157; 0.98157; 0.99078; 0.99078; 0.99078; 0.99078; 0.99078; 0.99078; 0.99078

>  <Neighbor Count 2>
10

>  <Neighbor 2>
5820; 5182; 941; 2302; 2306; 4308; 4547; 5018; 5035; 5036

>  <Neighbor Analysis X 2>
0.44544366

>  <Neighbor Analysis Y 2>
-0.36544856

>  <SALI pChEMBL Value/FragFp>
17.36; 17.36; 16.275; 3.255; 73.78; 17.36; 27.125; 33.635; 22.785; 7.5951

>  <MMFF94 Energy>


>  <MMFF94 Energy 2>
55.53

$$$$
CHEMBL4750444
Actelion Java MolfileCreator 1.0

 55 57  0  0  0  0  0  0  0  0999 V2000
    0.0000   -5.6359    1.0448 Cl  0  0  0  0  0  0  0  0  0  0  0  0
    0.7568   -4.9804   -0.3552 C   0  0  0  0  0  0  0  0  0  0  0  0
    0.6818   -5.6451   -1.5801 C   0  0  0  0  0  0  0  0  0  0  0  0
    1.4568   -3.7790   -0.2566 C   0  0  0  0  0  0  0  0  0  0  0  0
    0.0143   -6.8029   -1.6915 F   0  0  0  0  0  0  0  0  0  0  0  0
    1.3079   -5.1266   -2.7125 C   0  0  0  0  0  0  0  0  0  0  0  0
    2.0680   -3.2474   -1.3974 C   0  0  0  0  0  0  0  0  0  0  0  0
    2.0130   -3.9262   -2.6222 C   0  0  0  0  0  0  0  0  0  0  0  0
    2.8490   -2.0002   -1.2697 C   0  0  0  0  0  0  0  0  0  0  0  0
    3.7594   -1.9926   -0.4451 O   0  0  0  0  0  0  0  0  0  0  0  0
    2.5267   -0.9115   -2.0731 N   0  0  0  0  0  0  0  0  0  0  0  0
    1.2770   -0.7331   -2.8124 C   0  0  0  0  0  0  0  0  0  0  0  0
    3.3793    0.2708   -2.0328 C   0  0  0  0  0  0  0  0  0  0  0  0
    0.4671    0.4034   -2.1925 C   0  0  0  0  0  0  0  0  0  0  0  0
    2.6386    1.4267   -1.3701 C   0  0  0  0  0  0  0  0  0  0  0  0
    1.3044    1.6852   -2.0834 C   0  0  0  0  0  0  0  0  0  0  0  0
    1.6018    2.0859   -3.3631 F   0  0  0  0  0  0  0  0  0  0  0  0
    0.5114    2.8460   -1.4348 C   0  0  0  0  0  0  0  0  0  0  0  0
    0.0103    2.5750   -0.0800 N   0  0  0  0  0  0  0  0  0  0  0  0
   -0.6915    3.7475    0.4721 C   0  0  0  0  0  0  0  0  0  0  0  0
   -1.2576    3.4434    1.8691 C   0  0  0  0  0  0  0  0  0  0  0  0
   -2.2786    2.4480    1.7295 O   0  0  0  0  0  0  0  0  0  0  0  0
   -2.5072    1.6691    2.8337 C   0  0  0  0  0  0  0  0  0  0  0  0
   -2.8327    0.3121    2.6518 C   0  0  0  0  0  0  0  0  0  0  0  0
   -2.5013    2.2124    4.1268 C   0  0  0  0  0  0  0  0  0  0  0  0
   -2.8938   -0.3751    1.3253 C   0  0  0  0  0  0  0  0  0  0  0  0
   -3.1211   -0.4785    3.7783 C   0  0  0  0  0  0  0  0  0  0  0  0
   -2.7838    1.4118    5.2353 C   0  0  0  0  0  0  0  0  0  0  0  0
   -3.3886   -1.4909    1.2015 O   0  0  0  0  0  0  0  0  0  0  0  0
   -2.3600    0.2531    0.2392 N   0  0  0  0  0  0  0  0  0  0  0  0
   -3.0911    0.0663    5.0624 C   0  0  0  0  0  0  0  0  0  0  0  0
    1.5359   -3.2604    0.6959 H   0  0  0  0  0  0  0  0  0  0  0  0
    1.2494   -5.6686   -3.6516 H   0  0  0  0  0  0  0  0  0  0  0  0
    2.5250   -3.5284   -3.4952 H   0  0  0  0  0  0  0  0  0  0  0  0
    1.5333   -0.5072   -3.8537 H   0  0  0  0  0  0  0  0  0  0  0  0
    0.6669   -1.6380   -2.8073 H   0  0  0  0  0  0  0  0  0  0  0  0
    4.3113    0.0688   -1.4952 H   0  0  0  0  0  0  0  0  0  0  0  0
    3.6489    0.5229   -3.0652 H   0  0  0  0  0  0  0  0  0  0  0  0
   -0.4213    0.5841   -2.8084 H   0  0  0  0  0  0  0  0  0  0  0  0
    0.1295    0.0887   -1.1984 H   0  0  0  0  0  0  0  0  0  0  0  0
    3.2682    2.3227   -1.4137 H   0  0  0  0  0  0  0  0  0  0  0  0
    2.4707    1.1848   -0.3142 H   0  0  0  0  0  0  0  0  0  0  0  0
   -0.3346    3.0847   -2.0921 H   0  0  0  0  0  0  0  0  0  0  0  0
    1.1520    3.7374   -1.4263 H   0  0  0  0  0  0  0  0  0  0  0  0
    0.7851    2.3300    0.5385 H   0  0  0  0  0  0  0  0  0  0  0  0
   -0.0030    4.5971    0.5424 H   0  0  0  0  0  0  0  0  0  0  0  0
   -1.5192    4.0184   -0.1940 H   0  0  0  0  0  0  0  0  0  0  0  0
   -0.4475    3.1056    2.5287 H   0  0  0  0  0  0  0  0  0  0  0  0
   -1.7056    4.3550    2.2804 H   0  0  0  0  0  0  0  0  0  0  0  0
   -2.3025    3.2671    4.2920 H   0  0  0  0  0  0  0  0  0  0  0  0
   -3.3724   -1.5311    3.6553 H   0  0  0  0  0  0  0  0  0  0  0  0
   -2.7770    1.8424    6.2339 H   0  0  0  0  0  0  0  0  0  0  0  0
   -1.9235    1.1693    0.3006 H   0  0  0  0  0  0  0  0  0  0  0  0
   -2.4181   -0.2045   -0.6572 H   0  0  0  0  0  0  0  0  0  0  0  0
   -3.3177   -0.5595    5.9222 H   0  0  0  0  0  0  0  0  0  0  0  0
  1  2  1  0  0  0  0
  2  3  2  0  0  0  0
  2  4  1  0  0  0  0
  3  5  1  0  0  0  0
  3  6  1  0  0  0  0
  4  7  2  0  0  0  0
  6  8  2  0  0  0  0
  7  9  1  0  0  0  0
  9 10  2  0  0  0  0
  9 11  1  0  0  0  0
 11 12  1  0  0  0  0
 11 13  1  0  0  0  0
 12 14  1  0  0  0  0
 13 15  1  0  0  0  0
 14 16  1  0  0  0  0
 16 17  1  0  0  0  0
 16 18  1  0  0  0  0
 18 19  1  0  0  0  0
 19 20  1  0  0  0  0
 20 21  1  0  0  0  0
 21 22  1  0  0  0  0
 22 23  1  0  0  0  0
 23 24  2  0  0  0  0
 23 25  1  0  0  0  0
 24 26  1  0  0  0  0
 24 27  1  0  0  0  0
 25 28  2  0  0  0  0
 26 29  2  0  0  0  0
 26 30  1  0  0  0  0
 27 31  2  0  0  0  0
  7  8  1  0  0  0  0
 15 16  1  0  0  0  0
 28 31  1  0  0  0  0
  4 32  1  0  0  0  0
  6 33  1  0  0  0  0
  8 34  1  0  0  0  0
 12 35  1  0  0  0  0
 12 36  1  0  0  0  0
 13 37  1  0  0  0  0
 13 38  1  0  0  0  0
 14 39  1  0  0  0  0
 14 40  1  0  0  0  0
 15 41  1  0  0  0  0
 15 42  1  0  0  0  0
 18 43  1  0  0  0  0
 18 44  1  0  0  0  0
 19 45  1  0  0  0  0
 20 46  1  0  0  0  0
 20 47  1  0  0  0  0
 21 48  1  0  0  0  0
 21 49  1  0  0  0  0
 25 50  1  0  0  0  0
 27 51  1  0  0  0  0
 28 52  1  0  0  0  0
 30 53  1  0  0  0  0
 30 54  1  0  0  0  0
 31 55  1  0  0  0  0
M  END
>  <Molecule ChEMBL ID>
CHEMBL4750444

>  <Molecule Name>


>  <Molecule Max Phase>
None

>  <Molecular Weight>
451.90

>  <#RO5 Violations>
0

>  <AlogP>
3.19

>  <Compound Key>
42

>  <Smiles>
NC(=O)c1ccccc1OCCNCC1(F)CCN(C(=O)c2ccc(F)c(Cl)c2)CC1

>  <Standard Type>
Ki

>  <Standard Relation>
'='

>  <Standard Value>
0.06026

>  <Standard Units>
nM

>  <pChEMBL Value>
10.22

>  <Data Validity Comment>


>  <Comment>


>  <Uo Units>
UO_0000065

>  <Ligand Efficiency BEI>
22.62

>  <Ligand Efficiency LE>
0.45

>  <Ligand Efficiency LLE>
7.03

>  <Ligand Efficiency SEI>
12.07

>  <Potential Duplicate>
0

>  <Assay ChEMBL ID>
CHEMBL4670397

>  <Assay Description>
Displacement of [3H]8-OH-DPAT from human 5-HT1A receptor stably expressed in CHO-K1 cell membranes measured after 60 mins by Microbeta2 scintillation counting method

>  <Assay Type>
B

>  <BAO Format ID>
BAO_0000219

>  <BAO Label>
cell-based format

>  <Assay Organism>
Homo sapiens

>  <Assay Tissue ChEMBL ID>
None

>  <Assay Tissue Name>
None

>  <Assay Cell Type>
CHO-K1

>  <Assay Subcellular Fraction>
None

>  <Assay Parameters>


>  <Assay Variant Accession>


>  <Assay Variant Mutation>


>  <Target ChEMBL ID>
CHEMBL214

>  <Target Name>
Serotonin 1a (5-HT1a) receptor

>  <Target Organism>
Homo sapiens

>  <SmilesFragFp 3>


>  <Target Type>
SINGLE PROTEIN

>  <Document ChEMBL ID>
CHEMBL4665789

>  <Source ID>
1

>  <Source Description>
Scientific Literature

>  <Document Journal>
J Med Chem

>  <Document Year>
2020

>  <Cell ChEMBL ID>
None

>  <SmilesFragFp 4>


>  <Properties>
TIME = 1.0 hr

>  <Action Type>
AGONIST

>  <Row-ID>
4870

>  <Neighbor Similarity FragFp 95%>


>  <Neighbor Count>
0

>  <Neighbor>


>  <Neighbor Analysis X>
0.176479

>  <Neighbor Analysis Y>
0.95461565

>  <Row-ID 2>
4870

>  <Neighbor Similarity FragFp 95% 2>


>  <Neighbor Count 2>
0

>  <Neighbor 2>


>  <Neighbor Analysis X 2>
0.80986786

>  <Neighbor Analysis Y 2>
0.5714338

>  <SALI pChEMBL Value/FragFp>


>  <MMFF94 Energy>


>  <MMFF94 Energy 2>
66.632

$$$$
CHEMBL4760666
Actelion Java MolfileCreator 1.0

 59 61  0  0  0  0  0  0  0  0999 V2000
    4.6443   -5.6072   -3.9225 Cl  0  0  0  0  0  0  0  0  0  0  0  0
    3.8914   -4.4405   -2.9051 C   0  0  0  0  0  0  0  0  0  0  0  0
    3.8497   -3.0954   -3.2771 C   0  0  0  0  0  0  0  0  0  0  0  0
    3.3196   -4.8487   -1.7017 C   0  0  0  0  0  0  0  0  0  0  0  0
    4.3931   -2.6883   -4.4335 F   0  0  0  0  0  0  0  0  0  0  0  0
    3.2473   -2.1453   -2.4538 C   0  0  0  0  0  0  0  0  0  0  0  0
    2.6948   -3.8987   -0.8879 C   0  0  0  0  0  0  0  0  0  0  0  0
    2.6715   -2.5446   -1.2479 C   0  0  0  0  0  0  0  0  0  0  0  0
    2.1209   -4.3308    0.4006 C   0  0  0  0  0  0  0  0  0  0  0  0
    2.9016   -4.7895    1.2294 O   0  0  0  0  0  0  0  0  0  0  0  0
    0.7547   -4.1845    0.6088 N   0  0  0  0  0  0  0  0  0  0  0  0
    0.2041   -4.4745    1.9288 C   0  0  0  0  0  0  0  0  0  0  0  0
   -0.2423   -3.8830   -0.4174 C   0  0  0  0  0  0  0  0  0  0  0  0
   -0.6486   -3.3090    2.4198 C   0  0  0  0  0  0  0  0  0  0  0  0
   -1.0948   -2.6921    0.0031 C   0  0  0  0  0  0  0  0  0  0  0  0
   -1.7171   -2.9358    1.3847 C   0  0  0  0  0  0  0  0  0  0  0  0
   -2.5621   -4.0116    1.2613 F   0  0  0  0  0  0  0  0  0  0  0  0
   -2.5879   -1.7474    1.8551 C   0  0  0  0  0  0  0  0  0  0  0  0
   -1.8579   -0.4868    2.0295 N   0  0  0  0  0  0  0  0  0  0  0  0
   -2.7293    0.5626    2.5834 C   0  0  0  0  0  0  0  0  0  0  0  0
   -2.0136    1.9217    2.5621 C   0  0  0  0  0  0  0  0  0  0  0  0
   -1.8029    2.2928    1.1950 O   0  0  0  0  0  0  0  0  0  0  0  0
   -1.1488    3.4725    0.9631 C   0  0  0  0  0  0  0  0  0  0  0  0
   -0.9816    3.7907   -0.3944 C   0  0  0  0  0  0  0  0  0  0  0  0
   -0.6588    4.3377    1.9330 C   0  0  0  0  0  0  0  0  0  0  0  0
   -0.3304    4.9595   -0.8304 C   0  0  0  0  0  0  0  0  0  0  0  0
   -0.0078    5.5033    1.5416 C   0  0  0  0  0  0  0  0  0  0  0  0
   -0.1725    5.2603   -2.1794 N   0  0  0  0  0  0  0  0  0  0  0  0
    0.1515    5.8035    0.1834 C   0  0  0  0  0  0  0  0  0  0  0  0
    0.5313    6.4626   -2.6066 C   0  0  0  0  0  0  0  0  0  0  0  0
   -0.7356    4.4013   -3.2127 C   0  0  0  0  0  0  0  0  0  0  0  0
    3.3596   -5.8896   -1.3906 H   0  0  0  0  0  0  0  0  0  0  0  0
    3.2406   -1.1019   -2.7546 H   0  0  0  0  0  0  0  0  0  0  0  0
    2.2199   -1.8076   -0.5879 H   0  0  0  0  0  0  0  0  0  0  0  0
   -0.3970   -5.3875    1.8443 H   0  0  0  0  0  0  0  0  0  0  0  0
    0.9997   -4.6746    2.6535 H   0  0  0  0  0  0  0  0  0  0  0  0
    0.2147   -3.6946   -1.3908 H   0  0  0  0  0  0  0  0  0  0  0  0
   -0.8659   -4.7776   -0.5355 H   0  0  0  0  0  0  0  0  0  0  0  0
   -1.1239   -3.5934    3.3656 H   0  0  0  0  0  0  0  0  0  0  0  0
    0.0031   -2.4496    2.6186 H   0  0  0  0  0  0  0  0  0  0  0  0
   -1.8837   -2.5398   -0.7421 H   0  0  0  0  0  0  0  0  0  0  0  0
   -0.4671   -1.7937    0.0163 H   0  0  0  0  0  0  0  0  0  0  0  0
   -3.0641   -2.0328    2.8021 H   0  0  0  0  0  0  0  0  0  0  0  0
   -3.4042   -1.6081    1.1347 H   0  0  0  0  0  0  0  0  0  0  0  0
   -1.5150   -0.1497    1.1265 H   0  0  0  0  0  0  0  0  0  0  0  0
   -3.6452    0.6371    1.9849 H   0  0  0  0  0  0  0  0  0  0  0  0
   -2.9997    0.3117    3.6146 H   0  0  0  0  0  0  0  0  0  0  0  0
   -2.6531    2.6649    3.0528 H   0  0  0  0  0  0  0  0  0  0  0  0
   -1.0569    1.8428    3.0931 H   0  0  0  0  0  0  0  0  0  0  0  0
   -1.3821    3.0844   -1.1151 H   0  0  0  0  0  0  0  0  0  0  0  0
   -0.7625    4.1386    2.9934 H   0  0  0  0  0  0  0  0  0  0  0  0
    0.3807    6.1869    2.2921 H   0  0  0  0  0  0  0  0  0  0  0  0
    0.6663    6.7282   -0.0596 H   0  0  0  0  0  0  0  0  0  0  0  0
    0.0107    7.3622   -2.2605 H   0  0  0  0  0  0  0  0  0  0  0  0
    0.5976    6.5325   -3.6977 H   0  0  0  0  0  0  0  0  0  0  0  0
    1.5596    6.4689   -2.2286 H   0  0  0  0  0  0  0  0  0  0  0  0
   -0.2900    3.4013   -3.1738 H   0  0  0  0  0  0  0  0  0  0  0  0
   -0.5476    4.7927   -4.2183 H   0  0  0  0  0  0  0  0  0  0  0  0
   -1.8228    4.3199   -3.1036 H   0  0  0  0  0  0  0  0  0  0  0  0
  1  2  1  0  0  0  0
  2  3  2  0  0  0  0
  2  4  1  0  0  0  0
  3  5  1  0  0  0  0
  3  6  1  0  0  0  0
  4  7  2  0  0  0  0
  6  8  2  0  0  0  0
  7  9  1  0  0  0  0
  9 10  2  0  0  0  0
  9 11  1  0  0  0  0
 11 12  1  0  0  0  0
 11 13  1  0  0  0  0
 12 14  1  0  0  0  0
 13 15  1  0  0  0  0
 14 16  1  0  0  0  0
 16 17  1  0  0  0  0
 16 18  1  0  0  0  0
 18 19  1  0  0  0  0
 19 20  1  0  0  0  0
 20 21  1  0  0  0  0
 21 22  1  0  0  0  0
 22 23  1  0  0  0  0
 23 24  2  0  0  0  0
 23 25  1  0  0  0  0
 24 26  1  0  0  0  0
 25 27  2  0  0  0  0
 26 28  1  0  0  0  0
 26 29  2  0  0  0  0
 28 30  1  0  0  0  0
 28 31  1  0  0  0  0
  7  8  1  0  0  0  0
 15 16  1  0  0  0  0
 27 29  1  0  0  0  0
  4 32  1  0  0  0  0
  6 33  1  0  0  0  0
  8 34  1  0  0  0  0
 12 35  1  0  0  0  0
 12 36  1  0  0  0  0
 13 37  1  0  0  0  0
 13 38  1  0  0  0  0
 14 39  1  0  0  0  0
 14 40  1  0  0  0  0
 15 41  1  0  0  0  0
 15 42  1  0  0  0  0
 18 43  1  0  0  0  0
 18 44  1  0  0  0  0
 19 45  1  0  0  0  0
 20 46  1  0  0  0  0
 20 47  1  0  0  0  0
 21 48  1  0  0  0  0
 21 49  1  0  0  0  0
 24 50  1  0  0  0  0
 25 51  1  0  0  0  0
 27 52  1  0  0  0  0
 29 53  1  0  0  0  0
 30 54  1  0  0  0  0
 30 55  1  0  0  0  0
 30 56  1  0  0  0  0
 31 57  1  0  0  0  0
 31 58  1  0  0  0  0
 31 59  1  0  0  0  0
M  END
>  <Molecule ChEMBL ID>
CHEMBL4760666

>  <Molecule Name>


>  <Molecule Max Phase>
None

>  <Molecular Weight>
451.95

>  <#RO5 Violations>
0

>  <AlogP>
4.16

>  <Compound Key>
46

>  <Smiles>
CN(C)c1cccc(OCCNCC2(F)CCN(C(=O)c3ccc(F)c(Cl)c3)CC2)c1

>  <Standard Type>
Ki

>  <Standard Relation>
'='

>  <Standard Value>
0.302

>  <Standard Units>
nM

>  <pChEMBL Value>
9.52

>  <Data Validity Comment>


>  <Comment>


>  <Uo Units>
UO_0000065

>  <Ligand Efficiency BEI>
21.06

>  <Ligand Efficiency LE>
0.42

>  <Ligand Efficiency LLE>
5.36

>  <Ligand Efficiency SEI>
21.25

>  <Potential Duplicate>
0

>  <Assay ChEMBL ID>
CHEMBL4670397

>  <Assay Description>
Displacement of [3H]8-OH-DPAT from human 5-HT1A receptor stably expressed in CHO-K1 cell membranes measured after 60 mins by Microbeta2 scintillation counting method

>  <Assay Type>
B

>  <BAO Format ID>
BAO_0000219

>  <BAO Label>
cell-based format

>  <Assay Organism>
Homo sapiens

>  <Assay Tissue ChEMBL ID>
None

>  <Assay Tissue Name>
None

>  <Assay Cell Type>
CHO-K1

>  <Assay Subcellular Fraction>
None

>  <Assay Parameters>


>  <Assay Variant Accession>


>  <Assay Variant Mutation>


>  <Target ChEMBL ID>
CHEMBL214

>  <Target Name>
Serotonin 1a (5-HT1a) receptor

>  <Target Organism>
Homo sapiens

>  <SmilesFragFp 3>


>  <Target Type>
SINGLE PROTEIN

>  <Document ChEMBL ID>
CHEMBL4665789

>  <Source ID>
1

>  <Source Description>
Scientific Literature

>  <Document Journal>
J Med Chem

>  <Document Year>
2020

>  <Cell ChEMBL ID>
None

>  <SmilesFragFp 4>


>  <Properties>
TIME = 1.0 hr

>  <Action Type>
AGONIST

>  <Row-ID>
2100

>  <Neighbor Similarity FragFp 95%>
0.98649

>  <Neighbor Count>
1

>  <Neighbor>
2305

>  <Neighbor Analysis X>
0.38715237

>  <Neighbor Analysis Y>
-0.1425002

>  <Row-ID 2>
2100

>  <Neighbor Similarity FragFp 95% 2>
0.98649

>  <Neighbor Count 2>
1

>  <Neighbor 2>
2305

>  <Neighbor Analysis X 2>
0.52240837

>  <Neighbor Analysis Y 2>
-0.35689315

>  <SALI pChEMBL Value/FragFp>
70.3

>  <MMFF94 Energy>


>  <MMFF94 Energy 2>
73.82

$$$$
CHEMBL4740430
Actelion Java MolfileCreator 1.0

 54 56  0  0  0  0  0  0  0  0999 V2000
    7.5707    0.6496   -1.2182 Cl  0  0  0  0  0  0  0  0  0  0  0  0
    6.5436    1.8075   -0.4649 C   0  0  0  0  0  0  0  0  0  0  0  0
    6.8808    3.1621   -0.4645 C   0  0  0  0  0  0  0  0  0  0  0  0
    5.3663    1.3825    0.1477 C   0  0  0  0  0  0  0  0  0  0  0  0
    8.0090    3.5865   -1.0519 F   0  0  0  0  0  0  0  0  0  0  0  0
    6.0559    4.1027    0.1502 C   0  0  0  0  0  0  0  0  0  0  0  0
    4.5271    2.3293    0.7439 C   0  0  0  0  0  0  0  0  0  0  0  0
    4.8751    3.6866    0.7653 C   0  0  0  0  0  0  0  0  0  0  0  0
    3.3006    1.8655    1.4213 C   0  0  0  0  0  0  0  0  0  0  0  0
    3.4440    1.0760    2.3507 O   0  0  0  0  0  0  0  0  0  0  0  0
    2.0683    2.3376    0.9842 N   0  0  0  0  0  0  0  0  0  0  0  0
    1.8187    3.0598   -0.2636 C   0  0  0  0  0  0  0  0  0  0  0  0
    0.8698    1.9936    1.7423 C   0  0  0  0  0  0  0  0  0  0  0  0
    0.8899    2.2533   -1.1674 C   0  0  0  0  0  0  0  0  0  0  0  0
   -0.0725    1.1456    0.8963 C   0  0  0  0  0  0  0  0  0  0  0  0
   -0.3918    1.8568   -0.4243 C   0  0  0  0  0  0  0  0  0  0  0  0
   -1.0550    3.0187   -0.1106 F   0  0  0  0  0  0  0  0  0  0  0  0
   -1.3508    1.0358   -1.3178 C   0  0  0  0  0  0  0  0  0  0  0  0
   -0.7996   -0.2380   -1.7948 N   0  0  0  0  0  0  0  0  0  0  0  0
   -1.6946   -0.9214   -2.7438 C   0  0  0  0  0  0  0  0  0  0  0  0
   -2.9643   -1.5155   -2.1110 C   0  0  0  0  0  0  0  0  0  0  0  0
   -2.5763   -2.3739   -1.0341 O   0  0  0  0  0  0  0  0  0  0  0  0
   -3.5771   -2.9766   -0.3250 C   0  0  0  0  0  0  0  0  0  0  0  0
   -3.1380   -3.7727    0.7368 C   0  0  0  0  0  0  0  0  0  0  0  0
   -4.9443   -2.8638   -0.5743 C   0  0  0  0  0  0  0  0  0  0  0  0
   -4.0501   -4.4522    1.5600 C   0  0  0  0  0  0  0  0  0  0  0  0
   -5.8630   -3.5413    0.2317 C   0  0  0  0  0  0  0  0  0  0  0  0
   -5.4201   -4.3333    1.2907 C   0  0  0  0  0  0  0  0  0  0  0  0
   -3.5566   -5.3243    2.6862 C   0  0  0  0  0  0  0  0  0  0  0  0
   -3.2623   -6.5872    2.2721 F   0  0  0  0  0  0  0  0  0  0  0  0
   -2.4239   -4.8482    3.2739 F   0  0  0  0  0  0  0  0  0  0  0  0
   -4.4647   -5.4635    3.6927 F   0  0  0  0  0  0  0  0  0  0  0  0
    5.0998    0.3288    0.1702 H   0  0  0  0  0  0  0  0  0  0  0  0
    6.3448    5.1494    0.1515 H   0  0  0  0  0  0  0  0  0  0  0  0
    4.2356    4.4102    1.2655 H   0  0  0  0  0  0  0  0  0  0  0  0
    1.3672    4.0241   -0.0033 H   0  0  0  0  0  0  0  0  0  0  0  0
    2.7428    3.2624   -0.8081 H   0  0  0  0  0  0  0  0  0  0  0  0
    1.1228    1.4595    2.6636 H   0  0  0  0  0  0  0  0  0  0  0  0
    0.3856    2.9324    2.0366 H   0  0  0  0  0  0  0  0  0  0  0  0
    1.4205    1.3584   -1.5144 H   0  0  0  0  0  0  0  0  0  0  0  0
    0.6428    2.8575   -2.0478 H   0  0  0  0  0  0  0  0  0  0  0  0
    0.3962    0.1731    0.7063 H   0  0  0  0  0  0  0  0  0  0  0  0
   -0.9948    0.9693    1.4614 H   0  0  0  0  0  0  0  0  0  0  0  0
   -1.6268    1.6619   -2.1759 H   0  0  0  0  0  0  0  0  0  0  0  0
   -2.2764    0.8653   -0.7551 H   0  0  0  0  0  0  0  0  0  0  0  0
   -0.6670   -0.8697   -0.9997 H   0  0  0  0  0  0  0  0  0  0  0  0
   -1.9589   -0.2556   -3.5731 H   0  0  0  0  0  0  0  0  0  0  0  0
   -1.1139   -1.7453   -3.1753 H   0  0  0  0  0  0  0  0  0  0  0  0
   -3.6119   -0.7107   -1.7450 H   0  0  0  0  0  0  0  0  0  0  0  0
   -3.4961   -2.0946   -2.8754 H   0  0  0  0  0  0  0  0  0  0  0  0
   -2.0685   -3.8630    0.9241 H   0  0  0  0  0  0  0  0  0  0  0  0
   -5.3314   -2.2616   -1.3893 H   0  0  0  0  0  0  0  0  0  0  0  0
   -6.9283   -3.4527    0.0305 H   0  0  0  0  0  0  0  0  0  0  0  0
   -6.1488   -4.8582    1.9070 H   0  0  0  0  0  0  0  0  0  0  0  0
  1  2  1  0  0  0  0
  2  3  2  0  0  0  0
  2  4  1  0  0  0  0
  3  5  1  0  0  0  0
  3  6  1  0  0  0  0
  4  7  2  0  0  0  0
  6  8  2  0  0  0  0
  7  9  1  0  0  0  0
  9 10  2  0  0  0  0
  9 11  1  0  0  0  0
 11 12  1  0  0  0  0
 11 13  1  0  0  0  0
 12 14  1  0  0  0  0
 13 15  1  0  0  0  0
 14 16  1  0  0  0  0
 16 17  1  0  0  0  0
 16 18  1  0  0  0  0
 18 19  1  0  0  0  0
 19 20  1  0  0  0  0
 20 21  1  0  0  0  0
 21 22  1  0  0  0  0
 22 23  1  0  0  0  0
 23 24  2  0  0  0  0
 23 25  1  0  0  0  0
 24 26  1  0  0  0  0
 25 27  2  0  0  0  0
 26 28  2  0  0  0  0
 26 29  1  0  0  0  0
 29 30  1  0  0  0  0
 29 31  1  0  0  0  0
 29 32  1  0  0  0  0
  7  8  1  0  0  0  0
 15 16  1  0  0  0  0
 27 28  1  0  0  0  0
  4 33  1  0  0  0  0
  6 34  1  0  0  0  0
  8 35  1  0  0  0  0
 12 36  1  0  0  0  0
 12 37  1  0  0  0  0
 13 38  1  0  0  0  0
 13 39  1  0  0  0  0
 14 40  1  0  0  0  0
 14 41  1  0  0  0  0
 15 42  1  0  0  0  0
 15 43  1  0  0  0  0
 18 44  1  0  0  0  0
 18 45  1  0  0  0  0
 19 46  1  0  0  0  0
 20 47  1  0  0  0  0
 20 48  1  0  0  0  0
 21 49  1  0  0  0  0
 21 50  1  0  0  0  0
 24 51  1  0  0  0  0
 25 52  1  0  0  0  0
 27 53  1  0  0  0  0
 28 54  1  0  0  0  0
M  END
>  <Molecule ChEMBL ID>
CHEMBL4740430

>  <Molecule Name>


>  <Molecule Max Phase>
None

>  <Molecular Weight>
476.87

>  <#RO5 Violations>
1

>  <AlogP>
5.11

>  <Compound Key>
50

>  <Smiles>
O=C(c1ccc(F)c(Cl)c1)N1CCC(F)(CNCCOc2cccc(C(F)(F)F)c2)CC1

>  <Standard Type>
Ki

>  <Standard Relation>
'='

>  <Standard Value>
0.2754

>  <Standard Units>
nM

>  <pChEMBL Value>
9.56

>  <Data Validity Comment>


>  <Comment>


>  <Uo Units>
UO_0000065

>  <Ligand Efficiency BEI>
20.05

>  <Ligand Efficiency LE>
0.41

>  <Ligand Efficiency LLE>
4.45

>  <Ligand Efficiency SEI>
23.00

>  <Potential Duplicate>
0

>  <Assay ChEMBL ID>
CHEMBL4670397

>  <Assay Description>
Displacement of [3H]8-OH-DPAT from human 5-HT1A receptor stably expressed in CHO-K1 cell membranes measured after 60 mins by Microbeta2 scintillation counting method

>  <Assay Type>
B

>  <BAO Format ID>
BAO_0000219

>  <BAO Label>
cell-based format

>  <Assay Organism>
Homo sapiens

>  <Assay Tissue ChEMBL ID>
None

>  <Assay Tissue Name>
None

>  <Assay Cell Type>
CHO-K1

>  <Assay Subcellular Fraction>
None

>  <Assay Parameters>


>  <Assay Variant Accession>


>  <Assay Variant Mutation>


>  <Target ChEMBL ID>
CHEMBL214

>  <Target Name>
Serotonin 1a (5-HT1a) receptor

>  <Target Organism>
Homo sapiens

>  <SmilesFragFp 3>


>  <Target Type>
SINGLE PROTEIN

>  <Document ChEMBL ID>
CHEMBL4665789

>  <Source ID>
1

>  <Source Description>
Scientific Literature

>  <Document Journal>
J Med Chem

>  <Document Year>
2020

>  <Cell ChEMBL ID>
None

>  <SmilesFragFp 4>


>  <Properties>
TIME = 1.0 hr

>  <Action Type>
AGONIST

>  <Row-ID>
5184

>  <Neighbor Similarity FragFp 95%>
0.97727; 0.97727; 0.97727; 0.97727; 0.97727; 0.97727; 0.97727

>  <Neighbor Count>
7

>  <Neighbor>
2302; 2306; 4308; 4547; 5018; 5035; 5036

>  <Neighbor Analysis X>
0.3443098

>  <Neighbor Analysis Y>
-0.14658582

>  <Row-ID 2>
5184

>  <Neighbor Similarity FragFp 95% 2>
0.97727; 0.97727; 0.97727; 0.97727; 0.97727; 0.97727; 0.97727

>  <Neighbor Count 2>
7

>  <Neighbor 2>
2302; 2306; 4308; 4547; 5018; 5035; 5036

>  <Neighbor Analysis X 2>
0.4967657

>  <Neighbor Analysis Y 2>
-0.3209734

>  <SALI pChEMBL Value/FragFp>
41.36; 12.76; 49.72; 53.68; 29.04; 33.44; 45.76

>  <MMFF94 Energy>


>  <MMFF94 Energy 2>
93.254

$$$$
CHEMBL4755058
Actelion Java MolfileCreator 1.0

 58 60  0  0  0  0  0  0  0  0999 V2000
    7.3942   -1.2027   -0.8819 Cl  0  0  0  0  0  0  0  0  0  0  0  0
    6.5517   -1.5772   -2.3355 C   0  0  0  0  0  0  0  0  0  0  0  0
    7.0721   -1.2047   -3.5759 C   0  0  0  0  0  0  0  0  0  0  0  0
    5.3385   -2.2596   -2.2640 C   0  0  0  0  0  0  0  0  0  0  0  0
    8.2373   -0.5462   -3.6585 F   0  0  0  0  0  0  0  0  0  0  0  0
    6.3954   -1.5139   -4.7543 C   0  0  0  0  0  0  0  0  0  0  0  0
    4.6477   -2.5477   -3.4466 C   0  0  0  0  0  0  0  0  0  0  0  0
    5.1799   -2.1958   -4.6924 C   0  0  0  0  0  0  0  0  0  0  0  0
    3.3793   -3.3004   -3.3991 C   0  0  0  0  0  0  0  0  0  0  0  0
    3.3685   -4.4023   -3.9407 O   0  0  0  0  0  0  0  0  0  0  0  0
    2.2872   -2.7421   -2.7451 N   0  0  0  0  0  0  0  0  0  0  0  0
    1.0673   -3.5291   -2.6046 C   0  0  0  0  0  0  0  0  0  0  0  0
    2.1723   -1.3569   -2.2898 C   0  0  0  0  0  0  0  0  0  0  0  0
    0.6097   -3.5450   -1.1507 C   0  0  0  0  0  0  0  0  0  0  0  0
    1.7594   -1.3108   -0.8244 C   0  0  0  0  0  0  0  0  0  0  0  0
    0.4765   -2.1214   -0.5954 C   0  0  0  0  0  0  0  0  0  0  0  0
   -0.5366   -1.5054   -1.2839 F   0  0  0  0  0  0  0  0  0  0  0  0
    0.0676   -2.1681    0.8953 C   0  0  0  0  0  0  0  0  0  0  0  0
   -0.1196   -0.8278    1.4684 N   0  0  0  0  0  0  0  0  0  0  0  0
   -0.5971   -0.8997    2.8569 C   0  0  0  0  0  0  0  0  0  0  0  0
   -0.9301    0.5001    3.3951 C   0  0  0  0  0  0  0  0  0  0  0  0
   -2.0728    0.9950    2.6915 O   0  0  0  0  0  0  0  0  0  0  0  0
   -2.5519    2.2231    3.0577 C   0  0  0  0  0  0  0  0  0  0  0  0
   -3.7176    2.6181    2.3880 C   0  0  0  0  0  0  0  0  0  0  0  0
   -1.9801    3.0734    4.0030 C   0  0  0  0  0  0  0  0  0  0  0  0
   -4.3189    3.8493    2.6584 C   0  0  0  0  0  0  0  0  0  0  0  0
   -2.5687    4.3093    4.2742 C   0  0  0  0  0  0  0  0  0  0  0  0
   -5.4823    4.3141    2.0114 N   0  0  0  0  0  0  0  0  0  0  0  0
   -3.7300    4.6961    3.6034 C   0  0  0  0  0  0  0  0  0  0  0  0
   -6.3592    3.5743    1.2384 C   0  0  0  0  0  0  0  0  0  0  0  0
   -6.3071    2.3722    1.0077 O   0  0  0  0  0  0  0  0  0  0  0  0
   -7.4815    4.4207    0.6923 C   0  0  0  0  0  0  0  0  0  0  0  0
    4.9355   -2.5722   -1.3049 H   0  0  0  0  0  0  0  0  0  0  0  0
    6.8233   -1.2283   -5.7105 H   0  0  0  0  0  0  0  0  0  0  0  0
    4.6513   -2.4588   -5.6064 H   0  0  0  0  0  0  0  0  0  0  0  0
    1.2171   -4.5567   -2.9507 H   0  0  0  0  0  0  0  0  0  0  0  0
    0.3034   -3.0767   -3.2480 H   0  0  0  0  0  0  0  0  0  0  0  0
    1.4129   -0.8724   -2.9161 H   0  0  0  0  0  0  0  0  0  0  0  0
    3.0974   -0.7971   -2.4391 H   0  0  0  0  0  0  0  0  0  0  0  0
    1.3330   -4.1109   -0.5502 H   0  0  0  0  0  0  0  0  0  0  0  0
   -0.3533   -4.0649   -1.0900 H   0  0  0  0  0  0  0  0  0  0  0  0
    1.6083   -0.2624   -0.5444 H   0  0  0  0  0  0  0  0  0  0  0  0
    2.5688   -1.7118   -0.2020 H   0  0  0  0  0  0  0  0  0  0  0  0
    0.8324   -2.7058    1.4685 H   0  0  0  0  0  0  0  0  0  0  0  0
   -0.8742   -2.7247    0.9771 H   0  0  0  0  0  0  0  0  0  0  0  0
   -0.8237   -0.3283    0.9131 H   0  0  0  0  0  0  0  0  0  0  0  0
   -1.4983   -1.5223    2.9084 H   0  0  0  0  0  0  0  0  0  0  0  0
    0.1785   -1.3494    3.4864 H   0  0  0  0  0  0  0  0  0  0  0  0
   -1.1615    0.4163    4.4638 H   0  0  0  0  0  0  0  0  0  0  0  0
   -0.0710    1.1670    3.2523 H   0  0  0  0  0  0  0  0  0  0  0  0
   -4.1321    1.9401    1.6477 H   0  0  0  0  0  0  0  0  0  0  0  0
   -1.0762    2.8085    4.5404 H   0  0  0  0  0  0  0  0  0  0  0  0
   -2.1204    4.9727    5.0095 H   0  0  0  0  0  0  0  0  0  0  0  0
   -5.7181    5.2862    2.1642 H   0  0  0  0  0  0  0  0  0  0  0  0
   -4.1676    5.6632    3.8360 H   0  0  0  0  0  0  0  0  0  0  0  0
   -8.1723    4.6756    1.5007 H   0  0  0  0  0  0  0  0  0  0  0  0
   -8.0203    3.8648   -0.0800 H   0  0  0  0  0  0  0  0  0  0  0  0
   -7.0848    5.3383    0.2483 H   0  0  0  0  0  0  0  0  0  0  0  0
  1  2  1  0  0  0  0
  2  3  2  0  0  0  0
  2  4  1  0  0  0  0
  3  5  1  0  0  0  0
  3  6  1  0  0  0  0
  4  7  2  0  0  0  0
  6  8  2  0  0  0  0
  7  9  1  0  0  0  0
  9 10  2  0  0  0  0
  9 11  1  0  0  0  0
 11 12  1  0  0  0  0
 11 13  1  0  0  0  0
 12 14  1  0  0  0  0
 13 15  1  0  0  0  0
 14 16  1  0  0  0  0
 16 17  1  0  0  0  0
 16 18  1  0  0  0  0
 18 19  1  0  0  0  0
 19 20  1  0  0  0  0
 20 21  1  0  0  0  0
 21 22  1  0  0  0  0
 22 23  1  0  0  0  0
 23 24  2  0  0  0  0
 23 25  1  0  0  0  0
 24 26  1  0  0  0  0
 25 27  2  0  0  0  0
 26 28  1  0  0  0  0
 26 29  2  0  0  0  0
 28 30  1  0  0  0  0
 30 31  2  0  0  0  0
 30 32  1  0  0  0  0
  7  8  1  0  0  0  0
 15 16  1  0  0  0  0
 27 29  1  0  0  0  0
  4 33  1  0  0  0  0
  6 34  1  0  0  0  0
  8 35  1  0  0  0  0
 12 36  1  0  0  0  0
 12 37  1  0  0  0  0
 13 38  1  0  0  0  0
 13 39  1  0  0  0  0
 14 40  1  0  0  0  0
 14 41  1  0  0  0  0
 15 42  1  0  0  0  0
 15 43  1  0  0  0  0
 18 44  1  0  0  0  0
 18 45  1  0  0  0  0
 19 46  1  0  0  0  0
 20 47  1  0  0  0  0
 20 48  1  0  0  0  0
 21 49  1  0  0  0  0
 21 50  1  0  0  0  0
 24 51  1  0  0  0  0
 25 52  1  0  0  0  0
 27 53  1  0  0  0  0
 28 54  1  0  0  0  0
 29 55  1  0  0  0  0
 32 56  1  0  0  0  0
 32 57  1  0  0  0  0
 32 58  1  0  0  0  0
M  END
>  <Molecule ChEMBL ID>
CHEMBL4755058

>  <Molecule Name>


>  <Molecule Max Phase>
None

>  <Molecular Weight>
465.93

>  <#RO5 Violations>
0

>  <AlogP>
4.05

>  <Compound Key>
47

>  <Smiles>
CC(=O)Nc1cccc(OCCNCC2(F)CCN(C(=O)c3ccc(F)c(Cl)c3)CC2)c1

>  <Standard Type>
Ki

>  <Standard Relation>
'='

>  <Standard Value>
0.08318

>  <Standard Units>
nM

>  <pChEMBL Value>
10.08

>  <Data Validity Comment>


>  <Comment>


>  <Uo Units>
UO_0000065

>  <Ligand Efficiency BEI>
21.63

>  <Ligand Efficiency LE>
0.43

>  <Ligand Efficiency LLE>
6.03

>  <Ligand Efficiency SEI>
14.26

>  <Potential Duplicate>
0

>  <Assay ChEMBL ID>
CHEMBL4670397

>  <Assay Description>
Displacement of [3H]8-OH-DPAT from human 5-HT1A receptor stably expressed in CHO-K1 cell membranes measured after 60 mins by Microbeta2 scintillation counting method

>  <Assay Type>
B

>  <BAO Format ID>
BAO_0000219

>  <BAO Label>
cell-based format

>  <Assay Organism>
Homo sapiens

>  <Assay Tissue ChEMBL ID>
None

>  <Assay Tissue Name>
None

>  <Assay Cell Type>
CHO-K1

>  <Assay Subcellular Fraction>
None

>  <Assay Parameters>


>  <Assay Variant Accession>


>  <Assay Variant Mutation>


>  <Target ChEMBL ID>
CHEMBL214

>  <Target Name>
Serotonin 1a (5-HT1a) receptor

>  <Target Organism>
Homo sapiens

>  <SmilesFragFp 3>


>  <Target Type>
SINGLE PROTEIN

>  <Document ChEMBL ID>
CHEMBL4665789

>  <Source ID>
1

>  <Source Description>
Scientific Literature

>  <Document Journal>
J Med Chem

>  <Document Year>
2020

>  <Cell ChEMBL ID>
None

>  <SmilesFragFp 4>


>  <Properties>
TIME = 1.0 hr

>  <Action Type>
AGONIST

>  <Row-ID>
2101

>  <Neighbor Similarity FragFp 95%>
1; 0.97768

>  <Neighbor Count>
2

>  <Neighbor>
5038; 2305

>  <Neighbor Analysis X>
0.38769287

>  <Neighbor Analysis Y>
-0.16798235

>  <Row-ID 2>
2101

>  <Neighbor Similarity FragFp 95% 2>
1; 0.97768

>  <Neighbor Count 2>
2

>  <Neighbor 2>
5038; 2305

>  <Neighbor Analysis X 2>
0.48625234

>  <Neighbor Analysis Y 2>
-0.36835393

>  <SALI pChEMBL Value/FragFp>
0; 17.472

>  <MMFF94 Energy>


>  <MMFF94 Energy 2>
53.045

$$$$
CHEMBL4752177
Actelion Java MolfileCreator 1.0

 58 60  0  0  0  0  0  0  0  0999 V2000
    1.1285   -5.0051   -2.1773 Cl  0  0  0  0  0  0  0  0  0  0  0  0
    1.3500   -3.7630   -0.9958 C   0  0  0  0  0  0  0  0  0  0  0  0
    0.6958   -3.7878    0.2456 C   0  0  0  0  0  0  0  0  0  0  0  0
    2.2018   -2.7043   -1.3185 C   0  0  0  0  0  0  0  0  0  0  0  0
   -0.3863   -5.0597    0.6961 Cl  0  0  0  0  0  0  0  0  0  0  0  0
    0.8994   -2.7540    1.1661 C   0  0  0  0  0  0  0  0  0  0  0  0
    2.3764   -1.6669   -0.4003 C   0  0  0  0  0  0  0  0  0  0  0  0
    1.7423   -1.6906    0.8450 C   0  0  0  0  0  0  0  0  0  0  0  0
    3.2333   -0.5146   -0.7327 C   0  0  0  0  0  0  0  0  0  0  0  0
    4.3481   -0.4769   -0.2211 O   0  0  0  0  0  0  0  0  0  0  0  0
    2.7037    0.4804   -1.5464 N   0  0  0  0  0  0  0  0  0  0  0  0
    1.3298    0.5187   -2.0416 C   0  0  0  0  0  0  0  0  0  0  0  0
    3.4076    1.7494   -1.6718 C   0  0  0  0  0  0  0  0  0  0  0  0
    0.5304    1.4941   -1.1925 C   0  0  0  0  0  0  0  0  0  0  0  0
    2.6937    2.8044   -0.8253 C   0  0  0  0  0  0  0  0  0  0  0  0
    1.1968    2.8777   -1.1774 C   0  0  0  0  0  0  0  0  0  0  0  0
    1.1117    3.3824   -2.4531 F   0  0  0  0  0  0  0  0  0  0  0  0
    0.4079    3.8456   -0.2644 C   0  0  0  0  0  0  0  0  0  0  0  0
    0.5663    3.5788    1.1738 N   0  0  0  0  0  0  0  0  0  0  0  0
   -0.6434    3.8946    1.9463 C   0  0  0  0  0  0  0  0  0  0  0  0
   -1.3229    2.6162    2.4668 C   0  0  0  0  0  0  0  0  0  0  0  0
   -1.8886    1.8775    1.3792 O   0  0  0  0  0  0  0  0  0  0  0  0
   -2.2273    0.5769    1.6492 C   0  0  0  0  0  0  0  0  0  0  0  0
   -2.3447   -0.2549    0.5295 C   0  0  0  0  0  0  0  0  0  0  0  0
   -2.4767    0.0576    2.9197 C   0  0  0  0  0  0  0  0  0  0  0  0
   -2.6660   -1.6067    0.6718 C   0  0  0  0  0  0  0  0  0  0  0  0
   -2.8204   -1.2868    3.0692 C   0  0  0  0  0  0  0  0  0  0  0  0
   -2.7797   -2.4971   -0.4142 N   0  0  0  0  0  0  0  0  0  0  0  0
   -2.9146   -2.1152    1.9502 C   0  0  0  0  0  0  0  0  0  0  0  0
   -2.2210   -2.3406   -1.6694 C   0  0  0  0  0  0  0  0  0  0  0  0
   -1.5155   -1.4115   -2.0463 O   0  0  0  0  0  0  0  0  0  0  0  0
   -2.5652   -3.4833   -2.5900 C   0  0  0  0  0  0  0  0  0  0  0  0
    2.7099   -2.6693   -2.2783 H   0  0  0  0  0  0  0  0  0  0  0  0
    0.3941   -2.7618    2.1287 H   0  0  0  0  0  0  0  0  0  0  0  0
    1.8931   -0.8774    1.5517 H   0  0  0  0  0  0  0  0  0  0  0  0
    1.3556    0.8398   -3.0895 H   0  0  0  0  0  0  0  0  0  0  0  0
    0.8644   -0.4657   -2.0191 H   0  0  0  0  0  0  0  0  0  0  0  0
    3.4129    2.0352   -2.7299 H   0  0  0  0  0  0  0  0  0  0  0  0
    4.4491    1.6548   -1.3483 H   0  0  0  0  0  0  0  0  0  0  0  0
    0.4522    1.1035   -0.1716 H   0  0  0  0  0  0  0  0  0  0  0  0
   -0.4817    1.5720   -1.6050 H   0  0  0  0  0  0  0  0  0  0  0  0
    3.1666    3.7785   -0.9937 H   0  0  0  0  0  0  0  0  0  0  0  0
    2.8249    2.5462    0.2322 H   0  0  0  0  0  0  0  0  0  0  0  0
   -0.6463    3.7920   -0.5673 H   0  0  0  0  0  0  0  0  0  0  0  0
    0.7188    4.8771   -0.4722 H   0  0  0  0  0  0  0  0  0  0  0  0
    1.3482    4.1348    1.5215 H   0  0  0  0  0  0  0  0  0  0  0  0
   -0.3431    4.4937    2.8142 H   0  0  0  0  0  0  0  0  0  0  0  0
   -1.3535    4.5032    1.3742 H   0  0  0  0  0  0  0  0  0  0  0  0
   -0.5821    2.0140    3.0094 H   0  0  0  0  0  0  0  0  0  0  0  0
   -2.1261    2.9059    3.1549 H   0  0  0  0  0  0  0  0  0  0  0  0
   -2.1808    0.1796   -0.4515 H   0  0  0  0  0  0  0  0  0  0  0  0
   -2.4260    0.6777    3.8087 H   0  0  0  0  0  0  0  0  0  0  0  0
   -3.0172   -1.6889    4.0600 H   0  0  0  0  0  0  0  0  0  0  0  0
   -3.2500   -3.3745   -0.2278 H   0  0  0  0  0  0  0  0  0  0  0  0
   -3.1748   -3.1608    2.0937 H   0  0  0  0  0  0  0  0  0  0  0  0
   -2.3162   -4.4377   -2.1178 H   0  0  0  0  0  0  0  0  0  0  0  0
   -1.9961   -3.3925   -3.5193 H   0  0  0  0  0  0  0  0  0  0  0  0
   -3.6338   -3.4580   -2.8206 H   0  0  0  0  0  0  0  0  0  0  0  0
  1  2  1  0  0  0  0
  2  3  2  0  0  0  0
  2  4  1  0  0  0  0
  3  5  1  0  0  0  0
  3  6  1  0  0  0  0
  4  7  2  0  0  0  0
  6  8  2  0  0  0  0
  7  9  1  0  0  0  0
  9 10  2  0  0  0  0
  9 11  1  0  0  0  0
 11 12  1  0  0  0  0
 11 13  1  0  0  0  0
 12 14  1  0  0  0  0
 13 15  1  0  0  0  0
 14 16  1  0  0  0  0
 16 17  1  0  0  0  0
 16 18  1  0  0  0  0
 18 19  1  0  0  0  0
 19 20  1  0  0  0  0
 20 21  1  0  0  0  0
 21 22  1  0  0  0  0
 22 23  1  0  0  0  0
 23 24  2  0  0  0  0
 23 25  1  0  0  0  0
 24 26  1  0  0  0  0
 25 27  2  0  0  0  0
 26 28  1  0  0  0  0
 26 29  2  0  0  0  0
 28 30  1  0  0  0  0
 30 31  2  0  0  0  0
 30 32  1  0  0  0  0
  7  8  1  0  0  0  0
 15 16  1  0  0  0  0
 27 29  1  0  0  0  0
  4 33  1  0  0  0  0
  6 34  1  0  0  0  0
  8 35  1  0  0  0  0
 12 36  1  0  0  0  0
 12 37  1  0  0  0  0
 13 38  1  0  0  0  0
 13 39  1  0  0  0  0
 14 40  1  0  0  0  0
 14 41  1  0  0  0  0
 15 42  1  0  0  0  0
 15 43  1  0  0  0  0
 18 44  1  0  0  0  0
 18 45  1  0  0  0  0
 19 46  1  0  0  0  0
 20 47  1  0  0  0  0
 20 48  1  0  0  0  0
 21 49  1  0  0  0  0
 21 50  1  0  0  0  0
 24 51  1  0  0  0  0
 25 52  1  0  0  0  0
 27 53  1  0  0  0  0
 28 54  1  0  0  0  0
 29 55  1  0  0  0  0
 32 56  1  0  0  0  0
 32 57  1  0  0  0  0
 32 58  1  0  0  0  0
M  END
>  <Molecule ChEMBL ID>
CHEMBL4752177

>  <Molecule Name>


>  <Molecule Max Phase>
None

>  <Molecular Weight>
482.38

>  <#RO5 Violations>
0

>  <AlogP>
4.56

>  <Compound Key>
48

>  <Smiles>
CC(=O)Nc1cccc(OCCNCC2(F)CCN(C(=O)c3ccc(Cl)c(Cl)c3)CC2)c1

>  <Standard Type>
Ki

>  <Standard Relation>
'='

>  <Standard Value>
0.0537

>  <Standard Units>
nM

>  <pChEMBL Value>
10.27

>  <Data Validity Comment>


>  <Comment>


>  <Uo Units>
UO_0000065

>  <Ligand Efficiency BEI>
21.29

>  <Ligand Efficiency LE>
0.44

>  <Ligand Efficiency LLE>
5.71

>  <Ligand Efficiency SEI>
14.53

>  <Potential Duplicate>
0

>  <Assay ChEMBL ID>
CHEMBL4670397

>  <Assay Description>
Displacement of [3H]8-OH-DPAT from human 5-HT1A receptor stably expressed in CHO-K1 cell membranes measured after 60 mins by Microbeta2 scintillation counting method

>  <Assay Type>
B

>  <BAO Format ID>
BAO_0000219

>  <BAO Label>
cell-based format

>  <Assay Organism>
Homo sapiens

>  <Assay Tissue ChEMBL ID>
None

>  <Assay Tissue Name>
None

>  <Assay Cell Type>
CHO-K1

>  <Assay Subcellular Fraction>
None

>  <Assay Parameters>


>  <Assay Variant Accession>


>  <Assay Variant Mutation>


>  <Target ChEMBL ID>
CHEMBL214

>  <Target Name>
Serotonin 1a (5-HT1a) receptor

>  <Target Organism>
Homo sapiens

>  <SmilesFragFp 3>


>  <Target Type>
SINGLE PROTEIN

>  <Document ChEMBL ID>
CHEMBL4665789

>  <Source ID>
1

>  <Source Description>
Scientific Literature

>  <Document Journal>
J Med Chem

>  <Document Year>
2020

>  <Cell ChEMBL ID>
None

>  <SmilesFragFp 4>


>  <Properties>
TIME = 1.0 hr

>  <Action Type>
AGONIST

>  <Row-ID>
5038

>  <Neighbor Similarity FragFp 95%>
1; 0.97768

>  <Neighbor Count>
2

>  <Neighbor>
2101; 2305

>  <Neighbor Analysis X>
0.39054123

>  <Neighbor Analysis Y>
-0.19407254

>  <Row-ID 2>
5038

>  <Neighbor Similarity FragFp 95% 2>
1; 0.97768

>  <Neighbor Count 2>
2

>  <Neighbor 2>
2101; 2305

>  <Neighbor Analysis X 2>
0.4633939

>  <Neighbor Analysis Y 2>
-0.38108984

>  <SALI pChEMBL Value/FragFp>
0; 8.96

>  <MMFF94 Energy>


>  <MMFF94 Energy 2>
54.262

$$$$
CHEMBL4744067
Actelion Java MolfileCreator 1.0

 57 60  0  0  0  0  0  0  0  0999 V2000
   -0.0808   -0.9698   -8.9981 Cl  0  0  0  0  0  0  0  0  0  0  0  0
   -0.2235    0.0986   -7.6560 C   0  0  0  0  0  0  0  0  0  0  0  0
   -1.4221    0.7694   -7.4064 C   0  0  0  0  0  0  0  0  0  0  0  0
    0.8709    0.2916   -6.8150 C   0  0  0  0  0  0  0  0  0  0  0  0
   -2.4845    0.5925   -8.2055 F   0  0  0  0  0  0  0  0  0  0  0  0
   -1.5404    1.6417   -6.3253 C   0  0  0  0  0  0  0  0  0  0  0  0
    0.7444    1.1492   -5.7174 C   0  0  0  0  0  0  0  0  0  0  0  0
   -0.4504    1.8411   -5.4781 C   0  0  0  0  0  0  0  0  0  0  0  0
    1.9189    1.3753   -4.8538 C   0  0  0  0  0  0  0  0  0  0  0  0
    2.8986    1.8984   -5.3774 O   0  0  0  0  0  0  0  0  0  0  0  0
    1.8543    1.0023   -3.5165 N   0  0  0  0  0  0  0  0  0  0  0  0
    2.9800    1.3074   -2.6408 C   0  0  0  0  0  0  0  0  0  0  0  0
    0.8052    0.1917   -2.8990 C   0  0  0  0  0  0  0  0  0  0  0  0
    2.4984    2.0311   -1.3887 C   0  0  0  0  0  0  0  0  0  0  0  0
    0.2530    0.8891   -1.6624 C   0  0  0  0  0  0  0  0  0  0  0  0
    1.3838    1.2444   -0.6874 C   0  0  0  0  0  0  0  0  0  0  0  0
    1.9317    0.0714   -0.2357 F   0  0  0  0  0  0  0  0  0  0  0  0
    0.8754    2.0282    0.5452 C   0  0  0  0  0  0  0  0  0  0  0  0
   -0.1725    1.3051    1.2787 N   0  0  0  0  0  0  0  0  0  0  0  0
   -0.5616    2.0185    2.5041 C   0  0  0  0  0  0  0  0  0  0  0  0
   -1.5345    1.1744    3.3413 C   0  0  0  0  0  0  0  0  0  0  0  0
   -0.8330    0.0243    3.8182 O   0  0  0  0  0  0  0  0  0  0  0  0
   -1.5481   -0.9168    4.5118 C   0  0  0  0  0  0  0  0  0  0  0  0
   -0.8591   -2.0955    4.8430 C   0  0  0  0  0  0  0  0  0  0  0  0
   -2.8791   -0.7704    4.9168 C   0  0  0  0  0  0  0  0  0  0  0  0
    0.4562   -2.2001    4.4480 O   0  0  0  0  0  0  0  0  0  0  0  0
   -1.5129   -3.1216    5.5393 C   0  0  0  0  0  0  0  0  0  0  0  0
   -3.5172   -1.7868    5.6354 C   0  0  0  0  0  0  0  0  0  0  0  0
    1.1342   -3.2539    5.1358 C   0  0  0  0  0  0  0  0  0  0  0  0
   -0.9186   -4.3147    5.8670 O   0  0  0  0  0  0  0  0  0  0  0  0
   -2.8346   -2.9609    5.9470 C   0  0  0  0  0  0  0  0  0  0  0  0
    0.2919   -4.5163    5.1303 C   0  0  0  0  0  0  0  0  0  0  0  0
    1.8157   -0.2108   -7.0068 H   0  0  0  0  0  0  0  0  0  0  0  0
   -2.4779    2.1639   -6.1584 H   0  0  0  0  0  0  0  0  0  0  0  0
   -0.5267    2.5356   -4.6449 H   0  0  0  0  0  0  0  0  0  0  0  0
    3.7255    1.9232   -3.1538 H   0  0  0  0  0  0  0  0  0  0  0  0
    3.4646    0.3591   -2.3798 H   0  0  0  0  0  0  0  0  0  0  0  0
    1.2575   -0.7697   -2.6259 H   0  0  0  0  0  0  0  0  0  0  0  0
   -0.0035   -0.0344   -3.5964 H   0  0  0  0  0  0  0  0  0  0  0  0
    2.1311    3.0274   -1.6657 H   0  0  0  0  0  0  0  0  0  0  0  0
    3.3489    2.1659   -0.7104 H   0  0  0  0  0  0  0  0  0  0  0  0
   -0.2796    1.8003   -1.9619 H   0  0  0  0  0  0  0  0  0  0  0  0
   -0.4705    0.2183   -1.1860 H   0  0  0  0  0  0  0  0  0  0  0  0
    1.7256    2.2019    1.2166 H   0  0  0  0  0  0  0  0  0  0  0  0
    0.4882    3.0034    0.2260 H   0  0  0  0  0  0  0  0  0  0  0  0
    0.1907    0.3834    1.5505 H   0  0  0  0  0  0  0  0  0  0  0  0
    0.3286    2.2326    3.1076 H   0  0  0  0  0  0  0  0  0  0  0  0
   -1.0439    2.9658    2.2393 H   0  0  0  0  0  0  0  0  0  0  0  0
   -1.8757    1.7759    4.1922 H   0  0  0  0  0  0  0  0  0  0  0  0
   -2.3934    0.8792    2.7259 H   0  0  0  0  0  0  0  0  0  0  0  0
   -3.4481    0.1266    4.6964 H   0  0  0  0  0  0  0  0  0  0  0  0
   -4.5507   -1.6629    5.9495 H   0  0  0  0  0  0  0  0  0  0  0  0
    2.0836   -3.4297    4.6206 H   0  0  0  0  0  0  0  0  0  0  0  0
    1.3559   -2.9208    6.1573 H   0  0  0  0  0  0  0  0  0  0  0  0
   -3.3336   -3.7536    6.4975 H   0  0  0  0  0  0  0  0  0  0  0  0
    0.0324   -4.8233    4.1095 H   0  0  0  0  0  0  0  0  0  0  0  0
    0.8366   -5.3377    5.6061 H   0  0  0  0  0  0  0  0  0  0  0  0
  1  2  1  0  0  0  0
  2  3  2  0  0  0  0
  2  4  1  0  0  0  0
  3  5  1  0  0  0  0
  3  6  1  0  0  0  0
  4  7  2  0  0  0  0
  6  8  2  0  0  0  0
  7  9  1  0  0  0  0
  9 10  2  0  0  0  0
  9 11  1  0  0  0  0
 11 12  1  0  0  0  0
 11 13  1  0  0  0  0
 12 14  1  0  0  0  0
 13 15  1  0  0  0  0
 14 16  1  0  0  0  0
 16 17  1  0  0  0  0
 16 18  1  0  0  0  0
 18 19  1  0  0  0  0
 19 20  1  0  0  0  0
 20 21  1  0  0  0  0
 21 22  1  0  0  0  0
 22 23  1  0  0  0  0
 23 24  2  0  0  0  0
 23 25  1  0  0  0  0
 24 26  1  0  0  0  0
 24 27  1  0  0  0  0
 25 28  2  0  0  0  0
 26 29  1  0  0  0  0
 27 30  1  0  0  0  0
 27 31  2  0  0  0  0
 29 32  1  0  0  0  0
  7  8  1  0  0  0  0
 15 16  1  0  0  0  0
 28 31  1  0  0  0  0
 30 32  1  0  0  0  0
  4 33  1  0  0  0  0
  6 34  1  0  0  0  0
  8 35  1  0  0  0  0
 12 36  1  0  0  0  0
 12 37  1  0  0  0  0
 13 38  1  0  0  0  0
 13 39  1  0  0  0  0
 14 40  1  0  0  0  0
 14 41  1  0  0  0  0
 15 42  1  0  0  0  0
 15 43  1  0  0  0  0
 18 44  1  0  0  0  0
 18 45  1  0  0  0  0
 19 46  1  0  0  0  0
 20 47  1  0  0  0  0
 20 48  1  0  0  0  0
 21 49  1  0  0  0  0
 21 50  1  0  0  0  0
 25 51  1  0  0  0  0
 28 52  1  0  0  0  0
 29 53  1  0  0  0  0
 29 54  1  0  0  0  0
 31 55  1  0  0  0  0
 32 56  1  0  0  0  0
 32 57  1  0  0  0  0
M  END
>  <Molecule ChEMBL ID>
CHEMBL4744067

>  <Molecule Name>


>  <Molecule Max Phase>
None

>  <Molecular Weight>
466.91

>  <#RO5 Violations>
0

>  <AlogP>
3.86

>  <Compound Key>
53

>  <Smiles>
O=C(c1ccc(F)c(Cl)c1)N1CCC(F)(CNCCOc2cccc3c2OCCO3)CC1

>  <Standard Type>
Ki

>  <Standard Relation>
'='

>  <Standard Value>
0.138

>  <Standard Units>
nM

>  <pChEMBL Value>
9.86

>  <Data Validity Comment>


>  <Comment>


>  <Uo Units>
UO_0000065

>  <Ligand Efficiency BEI>
21.12

>  <Ligand Efficiency LE>
0.42

>  <Ligand Efficiency LLE>
6.00

>  <Ligand Efficiency SEI>
16.43

>  <Potential Duplicate>
0

>  <Assay ChEMBL ID>
CHEMBL4670397

>  <Assay Description>
Displacement of [3H]8-OH-DPAT from human 5-HT1A receptor stably expressed in CHO-K1 cell membranes measured after 60 mins by Microbeta2 scintillation counting method

>  <Assay Type>
B

>  <BAO Format ID>
BAO_0000219

>  <BAO Label>
cell-based format

>  <Assay Organism>
Homo sapiens

>  <Assay Tissue ChEMBL ID>
None

>  <Assay Tissue Name>
None

>  <Assay Cell Type>
CHO-K1

>  <Assay Subcellular Fraction>
None

>  <Assay Parameters>


>  <Assay Variant Accession>


>  <Assay Variant Mutation>


>  <Target ChEMBL ID>
CHEMBL214

>  <Target Name>
Serotonin 1a (5-HT1a) receptor

>  <Target Organism>
Homo sapiens

>  <SmilesFragFp 3>


>  <Target Type>
SINGLE PROTEIN

>  <Document ChEMBL ID>
CHEMBL4665789

>  <Source ID>
1

>  <Source Description>
Scientific Literature

>  <Document Journal>
J Med Chem

>  <Document Year>
2020

>  <Cell ChEMBL ID>
None

>  <SmilesFragFp 4>


>  <Properties>
TIME = 1.0 hr

>  <Action Type>
AGONIST

>  <Row-ID>
5039

>  <Neighbor Similarity FragFp 95%>
0.97835; 0.97835; 1; 0.9617

>  <Neighbor Count>
4

>  <Neighbor>
5606; 5315; 2307; 2675

>  <Neighbor Analysis X>
0.5696259

>  <Neighbor Analysis Y>
0.20853542

>  <Row-ID 2>
5039

>  <Neighbor Similarity FragFp 95% 2>
0.97835; 0.97835; 1; 0.9617

>  <Neighbor Count 2>
4

>  <Neighbor 2>
5606; 5315; 2307; 2675

>  <Neighbor Analysis X 2>
0.0125842225

>  <Neighbor Analysis Y 2>
0.45609456

>  <SALI pChEMBL Value/FragFp>
20.328; 30.03; 0; 1.8278

>  <MMFF94 Energy>


>  <MMFF94 Energy 2>
108.54

$$$$
CHEMBL4756322
Actelion Java MolfileCreator 1.0

 57 60  0  0  0  0  0  0  0  0999 V2000
   -3.2525    7.1659   -1.1375 Cl  0  0  0  0  0  0  0  0  0  0  0  0
   -1.7360    6.5443   -1.6843 C   0  0  0  0  0  0  0  0  0  0  0  0
   -1.4092    6.4544   -3.0446 C   0  0  0  0  0  0  0  0  0  0  0  0
   -0.8208    6.1229   -0.7168 C   0  0  0  0  0  0  0  0  0  0  0  0
   -2.4948    6.9533   -4.2928 Cl  0  0  0  0  0  0  0  0  0  0  0  0
   -0.1624    5.9501   -3.4330 C   0  0  0  0  0  0  0  0  0  0  0  0
    0.4119    5.5978   -1.1139 C   0  0  0  0  0  0  0  0  0  0  0  0
    0.7540    5.5277   -2.4683 C   0  0  0  0  0  0  0  0  0  0  0  0
    1.3810    5.1927   -0.0762 C   0  0  0  0  0  0  0  0  0  0  0  0
    1.7229    6.0519    0.7321 O   0  0  0  0  0  0  0  0  0  0  0  0
    1.8528    3.8852   -0.0645 N   0  0  0  0  0  0  0  0  0  0  0  0
    2.9299    3.5295    0.8521 C   0  0  0  0  0  0  0  0  0  0  0  0
    1.2820    2.7591   -0.8032 C   0  0  0  0  0  0  0  0  0  0  0  0
    2.4451    2.5086    1.8730 C   0  0  0  0  0  0  0  0  0  0  0  0
    0.7589    1.7011    0.1641 C   0  0  0  0  0  0  0  0  0  0  0  0
    1.8394    1.2870    1.1717 C   0  0  0  0  0  0  0  0  0  0  0  0
    2.8481    0.6699    0.4754 F   0  0  0  0  0  0  0  0  0  0  0  0
    1.3128    0.2775    2.2176 C   0  0  0  0  0  0  0  0  0  0  0  0
    0.7816   -0.9411    1.5936 N   0  0  0  0  0  0  0  0  0  0  0  0
    0.3614   -1.9259    2.6012 C   0  0  0  0  0  0  0  0  0  0  0  0
   -0.1669   -3.2196    1.9581 C   0  0  0  0  0  0  0  0  0  0  0  0
   -1.4312   -2.9545    1.3410 O   0  0  0  0  0  0  0  0  0  0  0  0
   -1.6994   -3.7209    0.2371 C   0  0  0  0  0  0  0  0  0  0  0  0
   -1.5290   -5.1089    0.1467 C   0  0  0  0  0  0  0  0  0  0  0  0
   -2.2549   -3.0181   -0.8376 C   0  0  0  0  0  0  0  0  0  0  0  0
   -1.0618   -5.7936    1.2429 O   0  0  0  0  0  0  0  0  0  0  0  0
   -1.8534   -5.7629   -1.0527 C   0  0  0  0  0  0  0  0  0  0  0  0
   -2.5994   -3.6791   -2.0166 C   0  0  0  0  0  0  0  0  0  0  0  0
   -1.3022   -7.1995    1.1366 C   0  0  0  0  0  0  0  0  0  0  0  0
   -1.6885   -7.1120   -1.2515 O   0  0  0  0  0  0  0  0  0  0  0  0
   -2.3937   -5.0525   -2.1252 C   0  0  0  0  0  0  0  0  0  0  0  0
   -0.8789   -7.7020   -0.2307 C   0  0  0  0  0  0  0  0  0  0  0  0
   -1.0566    6.2050    0.3421 H   0  0  0  0  0  0  0  0  0  0  0  0
    0.1027    5.8918   -4.4864 H   0  0  0  0  0  0  0  0  0  0  0  0
    1.7306    5.1561   -2.7705 H   0  0  0  0  0  0  0  0  0  0  0  0
    3.3204    4.4130    1.3673 H   0  0  0  0  0  0  0  0  0  0  0  0
    3.7500    3.1165    0.2528 H   0  0  0  0  0  0  0  0  0  0  0  0
    0.4607    3.0724   -1.4506 H   0  0  0  0  0  0  0  0  0  0  0  0
    2.0719    2.3462   -1.4412 H   0  0  0  0  0  0  0  0  0  0  0  0
    3.2929    2.2035    2.4971 H   0  0  0  0  0  0  0  0  0  0  0  0
    1.6968    2.9729    2.5278 H   0  0  0  0  0  0  0  0  0  0  0  0
    0.4255    0.8376   -0.4223 H   0  0  0  0  0  0  0  0  0  0  0  0
   -0.1125    2.0984    0.7000 H   0  0  0  0  0  0  0  0  0  0  0  0
    2.1415    0.0032    2.8822 H   0  0  0  0  0  0  0  0  0  0  0  0
    0.5313    0.7511    2.8241 H   0  0  0  0  0  0  0  0  0  0  0  0
    1.4967   -1.3450    0.9855 H   0  0  0  0  0  0  0  0  0  0  0  0
    1.2128   -2.1802    3.2430 H   0  0  0  0  0  0  0  0  0  0  0  0
   -0.4278   -1.4887    3.2241 H   0  0  0  0  0  0  0  0  0  0  0  0
    0.5733   -3.6033    1.2436 H   0  0  0  0  0  0  0  0  0  0  0  0
   -0.3174   -3.9579    2.7536 H   0  0  0  0  0  0  0  0  0  0  0  0
   -2.4126   -1.9456   -0.7512 H   0  0  0  0  0  0  0  0  0  0  0  0
   -3.0255   -3.1234   -2.8474 H   0  0  0  0  0  0  0  0  0  0  0  0
   -0.7204   -7.6954    1.9198 H   0  0  0  0  0  0  0  0  0  0  0  0
   -2.3656   -7.3902    1.3276 H   0  0  0  0  0  0  0  0  0  0  0  0
   -2.6546   -5.5715   -3.0434 H   0  0  0  0  0  0  0  0  0  0  0  0
   -1.0052   -8.7873   -0.2922 H   0  0  0  0  0  0  0  0  0  0  0  0
    0.1720   -7.4664   -0.4391 H   0  0  0  0  0  0  0  0  0  0  0  0
  1  2  1  0  0  0  0
  2  3  2  0  0  0  0
  2  4  1  0  0  0  0
  3  5  1  0  0  0  0
  3  6  1  0  0  0  0
  4  7  2  0  0  0  0
  6  8  2  0  0  0  0
  7  9  1  0  0  0  0
  9 10  2  0  0  0  0
  9 11  1  0  0  0  0
 11 12  1  0  0  0  0
 11 13  1  0  0  0  0
 12 14  1  0  0  0  0
 13 15  1  0  0  0  0
 14 16  1  0  0  0  0
 16 17  1  0  0  0  0
 16 18  1  0  0  0  0
 18 19  1  0  0  0  0
 19 20  1  0  0  0  0
 20 21  1  0  0  0  0
 21 22  1  0  0  0  0
 22 23  1  0  0  0  0
 23 24  2  0  0  0  0
 23 25  1  0  0  0  0
 24 26  1  0  0  0  0
 24 27  1  0  0  0  0
 25 28  2  0  0  0  0
 26 29  1  0  0  0  0
 27 30  1  0  0  0  0
 27 31  2  0  0  0  0
 29 32  1  0  0  0  0
  7  8  1  0  0  0  0
 15 16  1  0  0  0  0
 28 31  1  0  0  0  0
 30 32  1  0  0  0  0
  4 33  1  0  0  0  0
  6 34  1  0  0  0  0
  8 35  1  0  0  0  0
 12 36  1  0  0  0  0
 12 37  1  0  0  0  0
 13 38  1  0  0  0  0
 13 39  1  0  0  0  0
 14 40  1  0  0  0  0
 14 41  1  0  0  0  0
 15 42  1  0  0  0  0
 15 43  1  0  0  0  0
 18 44  1  0  0  0  0
 18 45  1  0  0  0  0
 19 46  1  0  0  0  0
 20 47  1  0  0  0  0
 20 48  1  0  0  0  0
 21 49  1  0  0  0  0
 21 50  1  0  0  0  0
 25 51  1  0  0  0  0
 28 52  1  0  0  0  0
 29 53  1  0  0  0  0
 29 54  1  0  0  0  0
 31 55  1  0  0  0  0
 32 56  1  0  0  0  0
 32 57  1  0  0  0  0
M  END
>  <Molecule ChEMBL ID>
CHEMBL4756322

>  <Molecule Name>


>  <Molecule Max Phase>
None

>  <Molecular Weight>
483.37

>  <#RO5 Violations>
0

>  <AlogP>
4.38

>  <Compound Key>
54

>  <Smiles>
O=C(c1ccc(Cl)c(Cl)c1)N1CCC(F)(CNCCOc2cccc3c2OCCO3)CC1

>  <Standard Type>
Ki

>  <Standard Relation>
'='

>  <Standard Value>
0.195

>  <Standard Units>
nM

>  <pChEMBL Value>
9.71

>  <Data Validity Comment>


>  <Comment>


>  <Uo Units>
UO_0000065

>  <Ligand Efficiency BEI>
20.09

>  <Ligand Efficiency LE>
0.41

>  <Ligand Efficiency LLE>
5.33

>  <Ligand Efficiency SEI>
16.18

>  <Potential Duplicate>
0

>  <Assay ChEMBL ID>
CHEMBL4670397

>  <Assay Description>
Displacement of [3H]8-OH-DPAT from human 5-HT1A receptor stably expressed in CHO-K1 cell membranes measured after 60 mins by Microbeta2 scintillation counting method

>  <Assay Type>
B

>  <BAO Format ID>
BAO_0000219

>  <BAO Label>
cell-based format

>  <Assay Organism>
Homo sapiens

>  <Assay Tissue ChEMBL ID>
None

>  <Assay Tissue Name>
None

>  <Assay Cell Type>
CHO-K1

>  <Assay Subcellular Fraction>
None

>  <Assay Parameters>


>  <Assay Variant Accession>


>  <Assay Variant Mutation>


>  <Target ChEMBL ID>
CHEMBL214

>  <Target Name>
Serotonin 1a (5-HT1a) receptor

>  <Target Organism>
Homo sapiens

>  <SmilesFragFp 3>


>  <Target Type>
SINGLE PROTEIN

>  <Document ChEMBL ID>
CHEMBL4665789

>  <Source ID>
1

>  <Source Description>
Scientific Literature

>  <Document Journal>
J Med Chem

>  <Document Year>
2020

>  <Cell ChEMBL ID>
None

>  <SmilesFragFp 4>


>  <Properties>
TIME = 1.0 hr

>  <Action Type>
AGONIST

>  <Row-ID>
2307

>  <Neighbor Similarity FragFp 95%>
0.97835; 0.97835; 1; 0.9617

>  <Neighbor Count>
4

>  <Neighbor>
5606; 5315; 5039; 2675

>  <Neighbor Analysis X>
0.5852468

>  <Neighbor Analysis Y>
0.18914749

>  <Row-ID 2>
2307

>  <Neighbor Similarity FragFp 95% 2>
0.97835; 0.97835; 1; 0.9617

>  <Neighbor Count 2>
4

>  <Neighbor 2>
5606; 5315; 5039; 2675

>  <Neighbor Analysis X 2>
-0.021552831

>  <Neighbor Analysis Y 2>
0.42098248

>  <SALI pChEMBL Value/FragFp>
13.398; 36.96; 0; 5.7444

>  <MMFF94 Energy>


>  <MMFF94 Energy 2>
111.86

$$$$
CHEMBL4756041
Actelion Java MolfileCreator 1.0

 56 59  0  0  0  0  0  0  0  0999 V2000
    5.9053   -2.3428   -3.2325 Cl  0  0  0  0  0  0  0  0  0  0  0  0
    4.4951   -1.6214   -2.5585 C   0  0  0  0  0  0  0  0  0  0  0  0
    4.0251   -0.3969   -3.0387 C   0  0  0  0  0  0  0  0  0  0  0  0
    3.8229   -2.2695   -1.5240 C   0  0  0  0  0  0  0  0  0  0  0  0
    4.6628    0.2378   -4.0333 F   0  0  0  0  0  0  0  0  0  0  0  0
    2.8885    0.1964   -2.4917 C   0  0  0  0  0  0  0  0  0  0  0  0
    2.6717   -1.6827   -0.9919 C   0  0  0  0  0  0  0  0  0  0  0  0
    2.2083   -0.4451   -1.4577 C   0  0  0  0  0  0  0  0  0  0  0  0
    1.9823   -2.3448    0.1292 C   0  0  0  0  0  0  0  0  0  0  0  0
    2.5632   -2.3456    1.2110 O   0  0  0  0  0  0  0  0  0  0  0  0
    0.7260   -2.8910   -0.0934 N   0  0  0  0  0  0  0  0  0  0  0  0
   -0.0780   -3.3229    1.0428 C   0  0  0  0  0  0  0  0  0  0  0  0
    0.0482   -3.0046   -1.3821 C   0  0  0  0  0  0  0  0  0  0  0  0
   -1.3318   -2.4605    1.1380 C   0  0  0  0  0  0  0  0  0  0  0  0
   -1.1958   -2.1251   -1.3892 C   0  0  0  0  0  0  0  0  0  0  0  0
   -2.1055   -2.4453   -0.1907 C   0  0  0  0  0  0  0  0  0  0  0  0
   -2.5977   -3.7118   -0.3908 F   0  0  0  0  0  0  0  0  0  0  0  0
   -3.3264   -1.4944   -0.1170 C   0  0  0  0  0  0  0  0  0  0  0  0
   -2.9442   -0.0882   -0.0109 N   0  0  0  0  0  0  0  0  0  0  0  0
   -4.0021    0.7719    0.5219 C   0  0  0  0  0  0  0  0  0  0  0  0
   -3.5139    2.2281    0.6298 C   0  0  0  0  0  0  0  0  0  0  0  0
   -2.5363    2.3300    1.6740 O   0  0  0  0  0  0  0  0  0  0  0  0
   -1.4115    3.0403    1.3129 C   0  0  0  0  0  0  0  0  0  0  0  0
   -0.1563    2.4382    1.5068 C   0  0  0  0  0  0  0  0  0  0  0  0
   -1.5376    4.3549    0.8423 C   0  0  0  0  0  0  0  0  0  0  0  0
   -0.0324    1.1803    1.9927 N   0  0  0  0  0  0  0  0  0  0  0  0
    0.9857    3.1972    1.1639 C   0  0  0  0  0  0  0  0  0  0  0  0
   -0.4023    5.0833    0.5087 C   0  0  0  0  0  0  0  0  0  0  0  0
    1.2025    0.6617    2.1643 C   0  0  0  0  0  0  0  0  0  0  0  0
    2.2517    2.6198    1.3409 C   0  0  0  0  0  0  0  0  0  0  0  0
    0.8547    4.5049    0.6633 C   0  0  0  0  0  0  0  0  0  0  0  0
    2.3646    1.3340    1.8515 C   0  0  0  0  0  0  0  0  0  0  0  0
    4.1861   -3.2141   -1.1277 H   0  0  0  0  0  0  0  0  0  0  0  0
    2.5487    1.1566   -2.8679 H   0  0  0  0  0  0  0  0  0  0  0  0
    1.3350    0.0214   -1.0055 H   0  0  0  0  0  0  0  0  0  0  0  0
   -0.3393   -4.3767    0.8915 H   0  0  0  0  0  0  0  0  0  0  0  0
    0.4878   -3.2549    1.9774 H   0  0  0  0  0  0  0  0  0  0  0  0
    0.7075   -2.7371   -2.2113 H   0  0  0  0  0  0  0  0  0  0  0  0
   -0.2246   -4.0577   -1.5210 H   0  0  0  0  0  0  0  0  0  0  0  0
   -1.9701   -2.8522    1.9384 H   0  0  0  0  0  0  0  0  0  0  0  0
   -1.0402   -1.4417    1.4151 H   0  0  0  0  0  0  0  0  0  0  0  0
   -1.7416   -2.2864   -2.3257 H   0  0  0  0  0  0  0  0  0  0  0  0
   -0.8803   -1.0766   -1.3634 H   0  0  0  0  0  0  0  0  0  0  0  0
   -3.9587   -1.6409   -1.0012 H   0  0  0  0  0  0  0  0  0  0  0  0
   -3.9355   -1.7975    0.7444 H   0  0  0  0  0  0  0  0  0  0  0  0
   -2.6076    0.2714   -0.9010 H   0  0  0  0  0  0  0  0  0  0  0  0
   -4.8766    0.7351   -0.1371 H   0  0  0  0  0  0  0  0  0  0  0  0
   -4.2944    0.4194    1.5177 H   0  0  0  0  0  0  0  0  0  0  0  0
   -3.1363    2.5602   -0.3468 H   0  0  0  0  0  0  0  0  0  0  0  0
   -4.3578    2.8712    0.9042 H   0  0  0  0  0  0  0  0  0  0  0  0
   -2.5168    4.8159    0.7532 H   0  0  0  0  0  0  0  0  0  0  0  0
   -0.4940    6.1027    0.1426 H   0  0  0  0  0  0  0  0  0  0  0  0
    1.2315   -0.3471    2.5681 H   0  0  0  0  0  0  0  0  0  0  0  0
    3.1548    3.1712    1.0916 H   0  0  0  0  0  0  0  0  0  0  0  0
    1.7375    5.0868    0.4063 H   0  0  0  0  0  0  0  0  0  0  0  0
    3.3301    0.8641    2.0025 H   0  0  0  0  0  0  0  0  0  0  0  0
  1  2  1  0  0  0  0
  2  3  2  0  0  0  0
  2  4  1  0  0  0  0
  3  5  1  0  0  0  0
  3  6  1  0  0  0  0
  4  7  2  0  0  0  0
  6  8  2  0  0  0  0
  7  9  1  0  0  0  0
  9 10  2  0  0  0  0
  9 11  1  0  0  0  0
 11 12  1  0  0  0  0
 11 13  1  0  0  0  0
 12 14  1  0  0  0  0
 13 15  1  0  0  0  0
 14 16  1  0  0  0  0
 16 17  1  0  0  0  0
 16 18  1  0  0  0  0
 18 19  1  0  0  0  0
 19 20  1  0  0  0  0
 20 21  1  0  0  0  0
 21 22  1  0  0  0  0
 22 23  1  0  0  0  0
 23 24  1  0  0  0  0
 23 25  2  0  0  0  0
 24 26  2  0  0  0  0
 24 27  1  0  0  0  0
 25 28  1  0  0  0  0
 26 29  1  0  0  0  0
 27 30  2  0  0  0  0
 27 31  1  0  0  0  0
 29 32  2  0  0  0  0
  7  8  1  0  0  0  0
 15 16  1  0  0  0  0
 28 31  2  0  0  0  0
 30 32  1  0  0  0  0
  4 33  1  0  0  0  0
  6 34  1  0  0  0  0
  8 35  1  0  0  0  0
 12 36  1  0  0  0  0
 12 37  1  0  0  0  0
 13 38  1  0  0  0  0
 13 39  1  0  0  0  0
 14 40  1  0  0  0  0
 14 41  1  0  0  0  0
 15 42  1  0  0  0  0
 15 43  1  0  0  0  0
 18 44  1  0  0  0  0
 18 45  1  0  0  0  0
 19 46  1  0  0  0  0
 20 47  1  0  0  0  0
 20 48  1  0  0  0  0
 21 49  1  0  0  0  0
 21 50  1  0  0  0  0
 25 51  1  0  0  0  0
 28 52  1  0  0  0  0
 29 53  1  0  0  0  0
 30 54  1  0  0  0  0
 31 55  1  0  0  0  0
 32 56  1  0  0  0  0
M  END
>  <Molecule ChEMBL ID>
CHEMBL4756041

>  <Molecule Name>


>  <Molecule Max Phase>
None

>  <Molecular Weight>
459.92

>  <#RO5 Violations>
0

>  <AlogP>
4.64

>  <Compound Key>
51

>  <Smiles>
O=C(c1ccc(F)c(Cl)c1)N1CCC(F)(CNCCOc2cccc3cccnc23)CC1

>  <Standard Type>
Ki

>  <Standard Relation>
'='

>  <Standard Value>
0.06026

>  <Standard Units>
nM

>  <pChEMBL Value>
10.22

>  <Data Validity Comment>


>  <Comment>


>  <Uo Units>
UO_0000065

>  <Ligand Efficiency BEI>
22.22

>  <Ligand Efficiency LE>
0.44

>  <Ligand Efficiency LLE>
5.58

>  <Ligand Efficiency SEI>
18.77

>  <Potential Duplicate>
0

>  <Assay ChEMBL ID>
CHEMBL4670397

>  <Assay Description>
Displacement of [3H]8-OH-DPAT from human 5-HT1A receptor stably expressed in CHO-K1 cell membranes measured after 60 mins by Microbeta2 scintillation counting method

>  <Assay Type>
B

>  <BAO Format ID>
BAO_0000219

>  <BAO Label>
cell-based format

>  <Assay Organism>
Homo sapiens

>  <Assay Tissue ChEMBL ID>
None

>  <Assay Tissue Name>
None

>  <Assay Cell Type>
CHO-K1

>  <Assay Subcellular Fraction>
None

>  <Assay Parameters>


>  <Assay Variant Accession>


>  <Assay Variant Mutation>


>  <Target ChEMBL ID>
CHEMBL214

>  <Target Name>
Serotonin 1a (5-HT1a) receptor

>  <Target Organism>
Homo sapiens

>  <SmilesFragFp 3>


>  <Target Type>
SINGLE PROTEIN

>  <Document ChEMBL ID>
CHEMBL4665789

>  <Source ID>
1

>  <Source Description>
Scientific Literature

>  <Document Journal>
J Med Chem

>  <Document Year>
2020

>  <Cell ChEMBL ID>
None

>  <SmilesFragFp 4>


>  <Properties>
TIME = 1.0 hr

>  <Action Type>
AGONIST

>  <Row-ID>
2676

>  <Neighbor Similarity FragFp 95%>
1

>  <Neighbor Count>
1

>  <Neighbor>
5479

>  <Neighbor Analysis X>
0.8084529

>  <Neighbor Analysis Y>
0.24169518

>  <Row-ID 2>
2676

>  <Neighbor Similarity FragFp 95% 2>
1

>  <Neighbor Count 2>
1

>  <Neighbor 2>
5479

>  <Neighbor Analysis X 2>
0.76458836

>  <Neighbor Analysis Y 2>
0.26851892

>  <SALI pChEMBL Value/FragFp>
0

>  <MMFF94 Energy>


>  <MMFF94 Energy 2>
114.33

$$$$
CHEMBL4743868
Actelion Java MolfileCreator 1.0

 56 59  0  0  0  0  0  0  0  0999 V2000
   -8.4681    3.5761   -1.1368 Cl  0  0  0  0  0  0  0  0  0  0  0  0
   -7.5811    3.0810    0.2608 C   0  0  0  0  0  0  0  0  0  0  0  0
   -8.2112    2.6250    1.4271 C   0  0  0  0  0  0  0  0  0  0  0  0
   -6.1867    3.1474    0.1992 C   0  0  0  0  0  0  0  0  0  0  0  0
   -9.9295    2.5140    1.5679 Cl  0  0  0  0  0  0  0  0  0  0  0  0
   -7.4429    2.2445    2.5332 C   0  0  0  0  0  0  0  0  0  0  0  0
   -5.4257    2.7393    1.2994 C   0  0  0  0  0  0  0  0  0  0  0  0
   -6.0496    2.3087    2.4737 C   0  0  0  0  0  0  0  0  0  0  0  0
   -3.9517    2.8380    1.2678 C   0  0  0  0  0  0  0  0  0  0  0  0
   -3.4196    3.5144    2.1441 O   0  0  0  0  0  0  0  0  0  0  0  0
   -3.2493    2.1765    0.2670 N   0  0  0  0  0  0  0  0  0  0  0  0
   -1.8216    2.4339    0.1146 C   0  0  0  0  0  0  0  0  0  0  0  0
   -3.7725    1.1200   -0.5975 C   0  0  0  0  0  0  0  0  0  0  0  0
   -1.0141    1.1721    0.3928 C   0  0  0  0  0  0  0  0  0  0  0  0
   -3.0220   -0.1836   -0.3417 C   0  0  0  0  0  0  0  0  0  0  0  0
   -1.5045    0.0092   -0.4786 C   0  0  0  0  0  0  0  0  0  0  0  0
   -1.2599    0.3316   -1.7867 F   0  0  0  0  0  0  0  0  0  0  0  0
   -0.7794   -1.3241   -0.1598 C   0  0  0  0  0  0  0  0  0  0  0  0
    0.6823   -1.2669   -0.2835 N   0  0  0  0  0  0  0  0  0  0  0  0
    1.2975   -2.5816   -0.0411 C   0  0  0  0  0  0  0  0  0  0  0  0
    2.8359   -2.5234   -0.0640 C   0  0  0  0  0  0  0  0  0  0  0  0
    3.2748   -2.2653   -1.3967 O   0  0  0  0  0  0  0  0  0  0  0  0
    4.5943   -1.9183   -1.5844 C   0  0  0  0  0  0  0  0  0  0  0  0
    5.6660   -2.1122   -0.6873 C   0  0  0  0  0  0  0  0  0  0  0  0
    4.7995   -1.3368   -2.8468 C   0  0  0  0  0  0  0  0  0  0  0  0
    5.5249   -2.6956    0.5320 N   0  0  0  0  0  0  0  0  0  0  0  0
    6.9454   -1.6742   -1.1128 C   0  0  0  0  0  0  0  0  0  0  0  0
    6.0612   -0.9154   -3.2408 C   0  0  0  0  0  0  0  0  0  0  0  0
    6.6047   -2.8458    1.3294 C   0  0  0  0  0  0  0  0  0  0  0  0
    8.0421   -1.8439   -0.2562 C   0  0  0  0  0  0  0  0  0  0  0  0
    7.1317   -1.0814   -2.3728 C   0  0  0  0  0  0  0  0  0  0  0  0
    7.8735   -2.4382    0.9849 C   0  0  0  0  0  0  0  0  0  0  0  0
   -5.6925    3.5219   -0.6941 H   0  0  0  0  0  0  0  0  0  0  0  0
   -7.9246    1.9051    3.4476 H   0  0  0  0  0  0  0  0  0  0  0  0
   -5.4521    2.0326    3.3405 H   0  0  0  0  0  0  0  0  0  0  0  0
   -1.6574    2.7768   -0.9139 H   0  0  0  0  0  0  0  0  0  0  0  0
   -1.4918    3.2396    0.7785 H   0  0  0  0  0  0  0  0  0  0  0  0
   -3.6486    1.4458   -1.6366 H   0  0  0  0  0  0  0  0  0  0  0  0
   -4.8363    0.9447   -0.4260 H   0  0  0  0  0  0  0  0  0  0  0  0
   -1.1024    0.9059    1.4534 H   0  0  0  0  0  0  0  0  0  0  0  0
    0.0389    1.3922    0.1867 H   0  0  0  0  0  0  0  0  0  0  0  0
   -3.2609   -0.5463    0.6662 H   0  0  0  0  0  0  0  0  0  0  0  0
   -3.3717   -0.9359   -1.0581 H   0  0  0  0  0  0  0  0  0  0  0  0
   -1.1534   -2.0839   -0.8574 H   0  0  0  0  0  0  0  0  0  0  0  0
   -1.0442   -1.6424    0.8564 H   0  0  0  0  0  0  0  0  0  0  0  0
    1.0799   -0.5796    0.3539 H   0  0  0  0  0  0  0  0  0  0  0  0
    0.9836   -2.9576    0.9397 H   0  0  0  0  0  0  0  0  0  0  0  0
    0.9555   -3.2834   -0.8106 H   0  0  0  0  0  0  0  0  0  0  0  0
    3.1748   -1.7405    0.6256 H   0  0  0  0  0  0  0  0  0  0  0  0
    3.2082   -3.5031    0.2552 H   0  0  0  0  0  0  0  0  0  0  0  0
    3.9531   -1.2092   -3.5188 H   0  0  0  0  0  0  0  0  0  0  0  0
    6.2065   -0.4612   -4.2169 H   0  0  0  0  0  0  0  0  0  0  0  0
    6.4093   -3.3209    2.2864 H   0  0  0  0  0  0  0  0  0  0  0  0
    9.0352   -1.5166   -0.5546 H   0  0  0  0  0  0  0  0  0  0  0  0
    8.1187   -0.7493   -2.6879 H   0  0  0  0  0  0  0  0  0  0  0  0
    8.7091   -2.5805    1.6600 H   0  0  0  0  0  0  0  0  0  0  0  0
  1  2  1  0  0  0  0
  2  3  2  0  0  0  0
  2  4  1  0  0  0  0
  3  5  1  0  0  0  0
  3  6  1  0  0  0  0
  4  7  2  0  0  0  0
  6  8  2  0  0  0  0
  7  9  1  0  0  0  0
  9 10  2  0  0  0  0
  9 11  1  0  0  0  0
 11 12  1  0  0  0  0
 11 13  1  0  0  0  0
 12 14  1  0  0  0  0
 13 15  1  0  0  0  0
 14 16  1  0  0  0  0
 16 17  1  0  0  0  0
 16 18  1  0  0  0  0
 18 19  1  0  0  0  0
 19 20  1  0  0  0  0
 20 21  1  0  0  0  0
 21 22  1  0  0  0  0
 22 23  1  0  0  0  0
 23 24  1  0  0  0  0
 23 25  2  0  0  0  0
 24 26  2  0  0  0  0
 24 27  1  0  0  0  0
 25 28  1  0  0  0  0
 26 29  1  0  0  0  0
 27 30  2  0  0  0  0
 27 31  1  0  0  0  0
 29 32  2  0  0  0  0
  7  8  1  0  0  0  0
 15 16  1  0  0  0  0
 28 31  2  0  0  0  0
 30 32  1  0  0  0  0
  4 33  1  0  0  0  0
  6 34  1  0  0  0  0
  8 35  1  0  0  0  0
 12 36  1  0  0  0  0
 12 37  1  0  0  0  0
 13 38  1  0  0  0  0
 13 39  1  0  0  0  0
 14 40  1  0  0  0  0
 14 41  1  0  0  0  0
 15 42  1  0  0  0  0
 15 43  1  0  0  0  0
 18 44  1  0  0  0  0
 18 45  1  0  0  0  0
 19 46  1  0  0  0  0
 20 47  1  0  0  0  0
 20 48  1  0  0  0  0
 21 49  1  0  0  0  0
 21 50  1  0  0  0  0
 25 51  1  0  0  0  0
 28 52  1  0  0  0  0
 29 53  1  0  0  0  0
 30 54  1  0  0  0  0
 31 55  1  0  0  0  0
 32 56  1  0  0  0  0
M  END
>  <Molecule ChEMBL ID>
CHEMBL4743868

>  <Molecule Name>


>  <Molecule Max Phase>
None

>  <Molecular Weight>
476.38

>  <#RO5 Violations>
1

>  <AlogP>
5.15

>  <Compound Key>
52

>  <Smiles>
O=C(c1ccc(Cl)c(Cl)c1)N1CCC(F)(CNCCOc2cccc3cccnc23)CC1

>  <Standard Type>
Ki

>  <Standard Relation>
'='

>  <Standard Value>
0.4266

>  <Standard Units>
nM

>  <pChEMBL Value>
9.37

>  <Data Validity Comment>


>  <Comment>


>  <Uo Units>
UO_0000065

>  <Ligand Efficiency BEI>
19.67

>  <Ligand Efficiency LE>
0.40

>  <Ligand Efficiency LLE>
4.22

>  <Ligand Efficiency SEI>
17.21

>  <Potential Duplicate>
0

>  <Assay ChEMBL ID>
CHEMBL4670397

>  <Assay Description>
Displacement of [3H]8-OH-DPAT from human 5-HT1A receptor stably expressed in CHO-K1 cell membranes measured after 60 mins by Microbeta2 scintillation counting method

>  <Assay Type>
B

>  <BAO Format ID>
BAO_0000219

>  <BAO Label>
cell-based format

>  <Assay Organism>
Homo sapiens

>  <Assay Tissue ChEMBL ID>
None

>  <Assay Tissue Name>
None

>  <Assay Cell Type>
CHO-K1

>  <Assay Subcellular Fraction>
None

>  <Assay Parameters>


>  <Assay Variant Accession>


>  <Assay Variant Mutation>


>  <Target ChEMBL ID>
CHEMBL214

>  <Target Name>
Serotonin 1a (5-HT1a) receptor

>  <Target Organism>
Homo sapiens

>  <SmilesFragFp 3>


>  <Target Type>
SINGLE PROTEIN

>  <Document ChEMBL ID>
CHEMBL4665789

>  <Source ID>
1

>  <Source Description>
Scientific Literature

>  <Document Journal>
J Med Chem

>  <Document Year>
2020

>  <Cell ChEMBL ID>
None

>  <SmilesFragFp 4>


>  <Properties>
TIME = 1.0 hr

>  <Action Type>
AGONIST

>  <Row-ID>
5479

>  <Neighbor Similarity FragFp 95%>
1

>  <Neighbor Count>
1

>  <Neighbor>
2676

>  <Neighbor Analysis X>
0.8153829

>  <Neighbor Analysis Y>
0.2167874

>  <Row-ID 2>
5479

>  <Neighbor Similarity FragFp 95% 2>
1

>  <Neighbor Count 2>
1

>  <Neighbor 2>
2676

>  <Neighbor Analysis X 2>
0.77046305

>  <Neighbor Analysis Y 2>
0.24376011

>  <SALI pChEMBL Value/FragFp>
0

>  <MMFF94 Energy>


>  <MMFF94 Energy 2>
117.14

$$$$
CHEMBL4790600
Actelion Java MolfileCreator 1.0

 62 65  0  0  0  0  0  0  0  0999 V2000
    1.6104    0.7244    4.1104 Cl  0  0  0  0  0  0  0  0  0  0  0  0
    3.1519    0.6349    3.3502 C   0  0  0  0  0  0  0  0  0  0  0  0
    4.2808    1.1729    3.9709 C   0  0  0  0  0  0  0  0  0  0  0  0
    3.2663    0.0176    2.1056 C   0  0  0  0  0  0  0  0  0  0  0  0
    4.1831    1.7717    5.1670 F   0  0  0  0  0  0  0  0  0  0  0  0
    5.5328    1.0945    3.3648 C   0  0  0  0  0  0  0  0  0  0  0  0
    4.5205   -0.0395    1.4871 C   0  0  0  0  0  0  0  0  0  0  0  0
    5.6573    0.4783    2.1198 C   0  0  0  0  0  0  0  0  0  0  0  0
    4.6789   -0.7217    0.1881 C   0  0  0  0  0  0  0  0  0  0  0  0
    5.4060   -1.7111    0.1688 O   0  0  0  0  0  0  0  0  0  0  0  0
    4.0084   -0.2232   -0.9237 N   0  0  0  0  0  0  0  0  0  0  0  0
    4.1016   -0.9538   -2.1845 C   0  0  0  0  0  0  0  0  0  0  0  0
    3.3659    1.0882   -1.0178 C   0  0  0  0  0  0  0  0  0  0  0  0
    2.7275   -1.1186   -2.8244 C   0  0  0  0  0  0  0  0  0  0  0  0
    1.9675    0.9642   -1.6110 C   0  0  0  0  0  0  0  0  0  0  0  0
    2.0200    0.2343   -2.9586 C   0  0  0  0  0  0  0  0  0  0  0  0
    2.7718    1.0087   -3.8086 F   0  0  0  0  0  0  0  0  0  0  0  0
    0.6255    0.0981   -3.6120 C   0  0  0  0  0  0  0  0  0  0  0  0
   -0.3312   -0.7136   -2.8526 N   0  0  0  0  0  0  0  0  0  0  0  0
   -1.6042   -0.8542   -3.5794 C   0  0  0  0  0  0  0  0  0  0  0  0
   -2.6699   -1.4908   -2.6748 C   0  0  0  0  0  0  0  0  0  0  0  0
   -2.9020   -0.5994   -1.5805 O   0  0  0  0  0  0  0  0  0  0  0  0
   -3.6691   -1.0649   -0.5538 C   0  0  0  0  0  0  0  0  0  0  0  0
   -3.6411   -0.3345    0.6261 C   0  0  0  0  0  0  0  0  0  0  0  0
   -4.4948   -2.1919   -0.5929 C   0  0  0  0  0  0  0  0  0  0  0  0
   -2.8801    0.7925    0.8261 O   0  0  0  0  0  0  0  0  0  0  0  0
   -4.3818   -0.7025    1.7385 C   0  0  0  0  0  0  0  0  0  0  0  0
   -5.2493   -2.5675    0.5347 C   0  0  0  0  0  0  0  0  0  0  0  0
   -3.3081    1.3192    2.1128 C   0  0  0  0  0  0  0  0  0  0  0  0
   -5.1915   -1.8232    1.7146 C   0  0  0  0  0  0  0  0  0  0  0  0
   -4.1040    0.2254    2.8585 C   0  0  0  0  0  0  0  0  0  0  0  0
   -4.1663    2.5620    1.8458 C   0  0  0  0  0  0  0  0  0  0  0  0
   -2.0506    1.7113    2.8892 C   0  0  0  0  0  0  0  0  0  0  0  0
    2.3975   -0.4225    1.6233 H   0  0  0  0  0  0  0  0  0  0  0  0
    6.4017    1.5056    3.8701 H   0  0  0  0  0  0  0  0  0  0  0  0
    6.6327    0.3931    1.6450 H   0  0  0  0  0  0  0  0  0  0  0  0
    4.5528   -1.9401   -2.0352 H   0  0  0  0  0  0  0  0  0  0  0  0
    4.7707   -0.3878   -2.8436 H   0  0  0  0  0  0  0  0  0  0  0  0
    3.3192    1.5935   -0.0514 H   0  0  0  0  0  0  0  0  0  0  0  0
    4.0001    1.7110   -1.6607 H   0  0  0  0  0  0  0  0  0  0  0  0
    2.1277   -1.8013   -2.2102 H   0  0  0  0  0  0  0  0  0  0  0  0
    2.8511   -1.5789   -3.8113 H   0  0  0  0  0  0  0  0  0  0  0  0
    1.3269    0.4241   -0.9041 H   0  0  0  0  0  0  0  0  0  0  0  0
    1.5490    1.9684   -1.7438 H   0  0  0  0  0  0  0  0  0  0  0  0
    0.2181    1.1051   -3.7705 H   0  0  0  0  0  0  0  0  0  0  0  0
    0.7625   -0.3347   -4.6114 H   0  0  0  0  0  0  0  0  0  0  0  0
   -0.5471   -0.2603   -1.9588 H   0  0  0  0  0  0  0  0  0  0  0  0
   -1.9599    0.1339   -3.8960 H   0  0  0  0  0  0  0  0  0  0  0  0
   -1.4586   -1.4783   -4.4674 H   0  0  0  0  0  0  0  0  0  0  0  0
   -3.5945   -1.6168   -3.2498 H   0  0  0  0  0  0  0  0  0  0  0  0
   -2.3171   -2.4663   -2.3170 H   0  0  0  0  0  0  0  0  0  0  0  0
   -4.5819   -2.8000   -1.4873 H   0  0  0  0  0  0  0  0  0  0  0  0
   -5.8823   -3.4508    0.4856 H   0  0  0  0  0  0  0  0  0  0  0  0
   -5.7642   -2.1225    2.5867 H   0  0  0  0  0  0  0  0  0  0  0  0
   -5.0167    0.6097    3.3240 H   0  0  0  0  0  0  0  0  0  0  0  0
   -3.4985   -0.2837    3.6163 H   0  0  0  0  0  0  0  0  0  0  0  0
   -5.0537    2.3097    1.2543 H   0  0  0  0  0  0  0  0  0  0  0  0
   -3.6070    3.3023    1.2626 H   0  0  0  0  0  0  0  0  0  0  0  0
   -4.4950    3.0305    2.7792 H   0  0  0  0  0  0  0  0  0  0  0  0
   -1.3955    0.8438    3.0245 H   0  0  0  0  0  0  0  0  0  0  0  0
   -2.2962    2.1201    3.8746 H   0  0  0  0  0  0  0  0  0  0  0  0
   -1.4658    2.4559    2.3373 H   0  0  0  0  0  0  0  0  0  0  0  0
  1  2  1  0  0  0  0
  2  3  2  0  0  0  0
  2  4  1  0  0  0  0
  3  5  1  0  0  0  0
  3  6  1  0  0  0  0
  4  7  2  0  0  0  0
  6  8  2  0  0  0  0
  7  9  1  0  0  0  0
  9 10  2  0  0  0  0
  9 11  1  0  0  0  0
 11 12  1  0  0  0  0
 11 13  1  0  0  0  0
 12 14  1  0  0  0  0
 13 15  1  0  0  0  0
 14 16  1  0  0  0  0
 16 17  1  0  0  0  0
 16 18  1  0  0  0  0
 18 19  1  0  0  0  0
 19 20  1  0  0  0  0
 20 21  1  0  0  0  0
 21 22  1  0  0  0  0
 22 23  1  0  0  0  0
 23 24  2  0  0  0  0
 23 25  1  0  0  0  0
 24 26  1  0  0  0  0
 24 27  1  0  0  0  0
 25 28  2  0  0  0  0
 26 29  1  0  0  0  0
 27 30  2  0  0  0  0
 27 31  1  0  0  0  0
 29 32  1  0  0  0  0
 29 33  1  0  0  0  0
  7  8  1  0  0  0  0
 15 16  1  0  0  0  0
 28 30  1  0  0  0  0
 29 31  1  0  0  0  0
  4 34  1  0  0  0  0
  6 35  1  0  0  0  0
  8 36  1  0  0  0  0
 12 37  1  0  0  0  0
 12 38  1  0  0  0  0
 13 39  1  0  0  0  0
 13 40  1  0  0  0  0
 14 41  1  0  0  0  0
 14 42  1  0  0  0  0
 15 43  1  0  0  0  0
 15 44  1  0  0  0  0
 18 45  1  0  0  0  0
 18 46  1  0  0  0  0
 19 47  1  0  0  0  0
 20 48  1  0  0  0  0
 20 49  1  0  0  0  0
 21 50  1  0  0  0  0
 21 51  1  0  0  0  0
 25 52  1  0  0  0  0
 28 53  1  0  0  0  0
 30 54  1  0  0  0  0
 31 55  1  0  0  0  0
 31 56  1  0  0  0  0
 32 57  1  0  0  0  0
 32 58  1  0  0  0  0
 32 59  1  0  0  0  0
 33 60  1  0  0  0  0
 33 61  1  0  0  0  0
 33 62  1  0  0  0  0
M  END
>  <Molecule ChEMBL ID>
CHEMBL4790600

>  <Molecule Name>


>  <Molecule Max Phase>
None

>  <Molecular Weight>
478.97

>  <#RO5 Violations>
0

>  <AlogP>
4.81

>  <Compound Key>
55

>  <Smiles>
CC1(C)Cc2cccc(OCCNCC3(F)CCN(C(=O)c4ccc(F)c(Cl)c4)CC3)c2O1

>  <Standard Type>
Ki

>  <Standard Relation>
'='

>  <Standard Value>
0.008511

>  <Standard Units>
nM

>  <pChEMBL Value>


>  <Data Validity Comment>
Outside typical range

>  <Comment>


>  <Uo Units>
UO_0000065

>  <Ligand Efficiency BEI>


>  <Ligand Efficiency LE>


>  <Ligand Efficiency LLE>


>  <Ligand Efficiency SEI>


>  <Potential Duplicate>
0

>  <Assay ChEMBL ID>
CHEMBL4670397

>  <Assay Description>
Displacement of [3H]8-OH-DPAT from human 5-HT1A receptor stably expressed in CHO-K1 cell membranes measured after 60 mins by Microbeta2 scintillation counting method

>  <Assay Type>
B

>  <BAO Format ID>
BAO_0000219

>  <BAO Label>
cell-based format

>  <Assay Organism>
Homo sapiens

>  <Assay Tissue ChEMBL ID>
None

>  <Assay Tissue Name>
None

>  <Assay Cell Type>
CHO-K1

>  <Assay Subcellular Fraction>
None

>  <Assay Parameters>


>  <Assay Variant Accession>


>  <Assay Variant Mutation>


>  <Target ChEMBL ID>
CHEMBL214

>  <Target Name>
Serotonin 1a (5-HT1a) receptor

>  <Target Organism>
Homo sapiens

>  <SmilesFragFp 3>


>  <Target Type>
SINGLE PROTEIN

>  <Document ChEMBL ID>
CHEMBL4665789

>  <Source ID>
1

>  <Source Description>
Scientific Literature

>  <Document Journal>
J Med Chem

>  <Document Year>
2020

>  <Cell ChEMBL ID>
None

>  <SmilesFragFp 4>


>  <Properties>
TIME = 1.0 hr

>  <Action Type>
AGONIST

>  <Row-ID>
3651

>  <Neighbor Similarity FragFp 95%>


>  <Neighbor Count>
0

>  <Neighbor>


>  <Neighbor Analysis X>
-0.4395251

>  <Neighbor Analysis Y>
-0.6237309

>  <Row-ID 2>
3651

>  <Neighbor Similarity FragFp 95% 2>


>  <Neighbor Count 2>
0

>  <Neighbor 2>


>  <Neighbor Analysis X 2>
0.40885398

>  <Neighbor Analysis Y 2>
-0.6769145

>  <SALI pChEMBL Value/FragFp>


>  <MMFF94 Energy>


>  <MMFF94 Energy 2>
98.868

$$$$
