
     RDKit          3D

 28 30  0  0  0  0  0  0  0  0999 V2000
  128.2670  122.7980  134.6670 O   0  0  0  0  0  0  0  0  0  0  0  0
  127.1950  123.5380  134.5290 C   0  0  0  0  0  0  0  0  0  0  0  0
  126.9060  124.4450  135.6020 C   0  0  0  0  0  0  0  0  0  0  0  0
  125.9370  125.4080  135.6100 C   0  0  0  0  0  0  0  0  0  0  0  0
  125.7310  126.2570  136.7140 C   0  0  0  0  0  0  0  0  0  0  0  0
  126.5030  126.1480  137.8290 C   0  0  0  0  0  0  0  0  0  0  0  0
  126.3270  126.9630  138.9230 F   0  0  0  0  0  0  0  0  0  0  0  0
  127.4830  125.1850  137.8360 C   0  0  0  0  0  0  0  0  0  0  0  0
  128.5080  125.0090  139.2720 Cl  0  0  0  0  0  0  0  0  0  0  0  0
  127.6890  124.3530  136.7650 C   0  0  0  0  0  0  0  0  0  0  0  0
  126.5080  123.3120  133.3430 N   0  0  0  0  0  0  0  0  0  0  0  0
  125.3030  123.9250  132.8630 C   0  0  0  0  0  0  0  0  0  0  0  0
  125.1800  123.6580  131.3460 C   0  0  0  0  0  0  0  0  0  0  0  0
  124.9530  122.1910  131.1760 C   0  0  0  0  0  0  0  0  0  0  0  0
  124.9470  121.9000  129.8290 F   0  0  0  0  0  0  0  0  0  0  0  0
  123.5830  121.8370  131.7300 C   0  0  0  0  0  0  0  0  0  0  0  0
  123.6980  120.9320  132.8350 N   0  0  0  0  0  0  0  0  0  0  0  0
  122.7990  121.2970  133.9040 C   0  0  0  0  0  0  0  0  0  0  0  0
  123.5070  121.8620  135.1080 C   0  0  0  0  0  0  0  0  0  0  0  0
  124.6150  121.0160  135.5070 N   0  0  0  0  0  0  0  0  0  0  0  0
  125.2910  121.2700  136.7280 C   0  0  0  0  0  0  0  0  0  0  0  0
  124.7190  122.0780  137.6850 C   0  0  0  0  0  0  0  0  0  0  0  0
  125.3150  122.3640  138.8830 C   0  0  0  0  0  0  0  0  0  0  0  0
  126.5610  121.7910  139.1060 C   0  0  0  0  0  0  0  0  0  0  0  0
  127.1450  120.9820  138.1610 C   0  0  0  0  0  0  0  0  0  0  0  0
  126.4910  120.7450  136.9980 N   0  0  0  0  0  0  0  0  0  0  0  0
  125.9890  121.3690  131.9350 C   0  0  0  0  0  0  0  0  0  0  0  0
  127.0740  122.3040  132.4170 C   0  0  0  0  0  0  0  0  0  0  0  0
  1  2  2  0
  2  3  1  0
  3  4  2  0
  4  5  1  0
  5  6  2  0
  6  7  1  0
  6  8  1  0
  8  9  1  0
  8 10  2  0
  2 11  1  0
 11 12  1  0
 12 13  1  0
 13 14  1  0
 14 15  1  0
 14 16  1  0
 16 17  1  0
 17 18  1  0
 18 19  1  0
 19 20  1  0
 20 21  1  0
 21 22  2  0
 22 23  1  0
 23 24  2  0
 24 25  1  0
 25 26  2  0
 14 27  1  0
 27 28  1  0
 10  3  1  0
 28 11  1  0
 26 21  1  0
M  END
$$$$

     RDKit          3D

 29 31  0  0  0  0  0  0  0  0999 V2000
  125.0700  126.2120  138.0710 O   0  0  0  0  0  0  0  0  0  0  0  0
  126.0020  126.2730  137.1340 C   0  0  0  0  0  0  0  0  0  0  0  0
  126.7610  127.4810  137.0680 C   0  0  0  0  0  0  0  0  0  0  0  0
  126.4050  128.5690  136.3400 C   0  0  0  0  0  0  0  0  0  0  0  0
  127.2410  129.6950  136.2950 C   0  0  0  0  0  0  0  0  0  0  0  0
  128.4240  129.7390  136.9710 C   0  0  0  0  0  0  0  0  0  0  0  0
  129.2290  130.8260  136.9290 F   0  0  0  0  0  0  0  0  0  0  0  0
  128.7730  128.6310  137.7030 C   0  0  0  0  0  0  0  0  0  0  0  0
  130.2820  128.6040  138.6070 Cl  0  0  0  0  0  0  0  0  0  0  0  0
  127.9780  127.5240  137.7630 C   0  0  0  0  0  0  0  0  0  0  0  0
  126.0380  125.0900  136.3800 N   0  0  0  0  0  0  0  0  0  0  0  0
  125.1550  123.9770  136.7330 C   0  0  0  0  0  0  0  0  0  0  0  0
  125.7320  122.6410  136.3840 C   0  0  0  0  0  0  0  0  0  0  0  0
  126.0640  122.5270  134.9200 C   0  0  0  0  0  0  0  0  0  0  0  0
  127.3120  122.0180  134.6970 F   0  0  0  0  0  0  0  0  0  0  0  0
  125.0620  121.7900  134.1190 C   0  0  0  0  0  0  0  0  0  0  0  0
  124.2150  122.4350  133.2650 N   0  0  0  0  0  0  0  0  0  0  0  0
  122.8600  122.2700  133.1500 C   0  0  0  0  0  0  0  0  0  0  0  0
  121.9820  123.2450  133.9280 C   0  0  0  0  0  0  0  0  0  0  0  0
  122.1730  124.5030  133.6800 O   0  0  0  0  0  0  0  0  0  0  0  0
  122.5640  125.6930  133.9860 C   0  0  0  0  0  0  0  0  0  0  0  0
  122.4660  126.2400  135.2470 C   0  0  0  0  0  0  0  0  0  0  0  0
  122.9120  127.5230  135.4820 C   0  0  0  0  0  0  0  0  0  0  0  0
  123.4620  128.2950  134.4900 C   0  0  0  0  0  0  0  0  0  0  0  0
  123.5530  127.7360  133.2400 C   0  0  0  0  0  0  0  0  0  0  0  0
  123.1300  126.4830  132.9610 C   0  0  0  0  0  0  0  0  0  0  0  0
  123.2290  125.9400  131.7090 F   0  0  0  0  0  0  0  0  0  0  0  0
  126.1080  123.9440  134.3080 C   0  0  0  0  0  0  0  0  0  0  0  0
  126.8680  124.9230  135.2320 C   0  0  0  0  0  0  0  0  0  0  0  0
  1  2  2  0
  2  3  1  0
  3  4  2  0
  4  5  1  0
  5  6  2  0
  6  7  1  0
  6  8  1  0
  8  9  1  0
  8 10  2  0
  2 11  1  0
 11 12  1  0
 12 13  1  0
 13 14  1  0
 14 15  1  0
 14 16  1  0
 16 17  1  0
 17 18  1  0
 18 19  1  0
 19 20  1  0
 20 21  1  0
 21 22  2  0
 22 23  1  0
 23 24  2  0
 24 25  1  0
 25 26  2  0
 26 27  1  0
 14 28  1  0
 28 29  1  0
 10  3  1  0
 29 11  1  0
 26 21  1  0
M  END
$$$$

     RDKit          3D

 28 30  0  0  0  0  0  0  0  0999 V2000
  132.8070  124.3300  140.0230 O   0  0  0  0  0  0  0  0  0  0  0  0
  132.0890  124.1310  141.0990 C   0  0  0  0  0  0  0  0  0  0  0  0
  131.6220  122.7920  141.2480 C   0  0  0  0  0  0  0  0  0  0  0  0
  132.5700  121.7290  141.3470 C   0  0  0  0  0  0  0  0  0  0  0  0
  132.2060  120.4330  141.5230 C   0  0  0  0  0  0  0  0  0  0  0  0
  130.8680  120.1080  141.6130 C   0  0  0  0  0  0  0  0  0  0  0  0
  130.5220  118.8160  141.7890 F   0  0  0  0  0  0  0  0  0  0  0  0
  129.9020  121.0790  141.5270 C   0  0  0  0  0  0  0  0  0  0  0  0
  128.1940  120.7290  141.6330 Cl  0  0  0  0  0  0  0  0  0  0  0  0
  130.3200  122.4070  141.3450 C   0  0  0  0  0  0  0  0  0  0  0  0
  131.9200  125.2510  141.8880 N   0  0  0  0  0  0  0  0  0  0  0  0
  132.5330  126.5460  141.4200 C   0  0  0  0  0  0  0  0  0  0  0  0
  131.4080  127.5450  141.5710 C   0  0  0  0  0  0  0  0  0  0  0  0
  131.3830  127.8620  143.0560 C   0  0  0  0  0  0  0  0  0  0  0  0
  132.4360  128.7180  143.3010 F   0  0  0  0  0  0  0  0  0  0  0  0
  130.1080  128.6630  143.3470 C   0  0  0  0  0  0  0  0  0  0  0  0
  129.4090  128.1840  144.4720 N   0  0  0  0  0  0  0  0  0  0  0  0
  128.0850  127.7120  144.2500 C   0  0  0  0  0  0  0  0  0  0  0  0
  127.6980  127.3240  142.8720 C   0  0  0  0  0  0  0  0  0  0  0  0
  127.4130  125.9540  142.6320 N   0  0  0  0  0  0  0  0  0  0  0  0
  127.6760  125.3740  141.3690 C   0  0  0  0  0  0  0  0  0  0  0  0
  128.5980  125.9010  140.4880 C   0  0  0  0  0  0  0  0  0  0  0  0
  128.8270  125.3070  139.2660 C   0  0  0  0  0  0  0  0  0  0  0  0
  128.1450  124.1690  138.8800 C   0  0  0  0  0  0  0  0  0  0  0  0
  127.2360  123.6510  139.7520 C   0  0  0  0  0  0  0  0  0  0  0  0
  127.0010  124.2420  140.9810 C   0  0  0  0  0  0  0  0  0  0  0  0
  131.4840  126.6350  143.8880 C   0  0  0  0  0  0  0  0  0  0  0  0
  131.2540  125.3410  143.1260 C   0  0  0  0  0  0  0  0  0  0  0  0
  1  2  2  0
  2  3  1  0
  3  4  2  0
  4  5  1  0
  5  6  2  0
  6  7  1  0
  6  8  1  0
  8  9  1  0
  8 10  2  0
  2 11  1  0
 11 12  1  0
 12 13  1  0
 13 14  1  0
 14 15  1  0
 14 16  1  0
 16 17  1  0
 17 18  1  0
 18 19  1  0
 19 20  1  0
 20 21  1  0
 21 22  2  0
 22 23  1  0
 23 24  2  0
 24 25  1  0
 25 26  2  0
 14 27  1  0
 27 28  1  0
 10  3  1  0
 28 11  1  0
 26 21  1  0
M  END
$$$$

     RDKit          3D

 30 32  0  0  0  0  0  0  0  0999 V2000
  129.0670  129.5850  144.1010 C   0  0  0  0  0  0  0  0  0  0  0  0
  129.1780  128.4950  145.0390 N   0  0  0  0  0  0  0  0  0  0  0  0
  128.6040  127.2250  144.7720 C   0  0  0  0  0  0  0  0  0  0  0  0
  129.2490  126.3710  143.8770 C   0  0  0  0  0  0  0  0  0  0  0  0
  128.7280  125.1310  143.5810 C   0  0  0  0  0  0  0  0  0  0  0  0
  127.5400  124.6810  144.1630 C   0  0  0  0  0  0  0  0  0  0  0  0
  126.8950  125.5060  145.0420 C   0  0  0  0  0  0  0  0  0  0  0  0
  125.7570  125.1750  145.6500 O   0  0  0  0  0  0  0  0  0  0  0  0
  124.4230  125.2540  145.4100 C   0  0  0  0  0  0  0  0  0  0  0  0
  123.8790  124.6620  144.1530 C   0  0  0  0  0  0  0  0  0  0  0  0
  123.4680  125.6550  143.1900 N   0  0  0  0  0  0  0  0  0  0  0  0
  124.3480  125.7570  142.0740 C   0  0  0  0  0  0  0  0  0  0  0  0
  125.0390  127.1030  141.9850 C   0  0  0  0  0  0  0  0  0  0  0  0
  125.1190  127.6850  143.2110 F   0  0  0  0  0  0  0  0  0  0  0  0
  124.3040  128.0410  141.0490 C   0  0  0  0  0  0  0  0  0  0  0  0
  125.0660  129.3260  141.0380 C   0  0  0  0  0  0  0  0  0  0  0  0
  126.5060  129.1950  140.8250 N   0  0  0  0  0  0  0  0  0  0  0  0
  127.1240  130.2420  140.1150 C   0  0  0  0  0  0  0  0  0  0  0  0
  126.3150  131.1610  139.6750 O   0  0  0  0  0  0  0  0  0  0  0  0
  128.5050  130.4810  139.7790 C   0  0  0  0  0  0  0  0  0  0  0  0
  129.1270  130.1150  138.6090 C   0  0  0  0  0  0  0  0  0  0  0  0
  130.4870  130.3400  138.3880 C   0  0  0  0  0  0  0  0  0  0  0  0
  131.2900  130.9390  139.3260 C   0  0  0  0  0  0  0  0  0  0  0  0
  132.6030  131.1700  139.1440 F   0  0  0  0  0  0  0  0  0  0  0  0
  130.6800  131.3080  140.5010 C   0  0  0  0  0  0  0  0  0  0  0  0
  131.6960  132.0820  141.7280 Cl  0  0  0  0  0  0  0  0  0  0  0  0
  129.3520  131.0930  140.7250 C   0  0  0  0  0  0  0  0  0  0  0  0
  127.2580  128.0560  141.2660 C   0  0  0  0  0  0  0  0  0  0  0  0
  126.3680  126.8320  141.3220 C   0  0  0  0  0  0  0  0  0  0  0  0
  127.4420  126.7690  145.3320 C   0  0  0  0  0  0  0  0  0  0  0  0
  1  2  1  0
  2  3  1  0
  3  4  2  0
  4  5  1  0
  5  6  2  0
  6  7  1  0
  7  8  1  0
  8  9  1  0
  9 10  1  0
 10 11  1  0
 11 12  1  0
 12 13  1  0
 13 14  1  0
 13 15  1  0
 15 16  1  0
 16 17  1  0
 17 18  1  0
 18 19  2  0
 18 20  1  0
 20 21  2  0
 21 22  1  0
 22 23  2  0
 23 24  1  0
 23 25  1  0
 25 26  1  0
 25 27  2  0
 17 28  1  0
 28 29  1  0
  7 30  2  0
 30  3  1  0
 29 13  1  0
 27 20  1  0
M  END
$$$$

     RDKit          3D

 32 35  0  0  0  0  0  0  0  0999 V2000
  129.9440  134.7730  136.1590 O   0  0  0  0  0  0  0  0  0  0  0  0
  129.7160  133.5240  135.8130 C   0  0  0  0  0  0  0  0  0  0  0  0
  130.6720  132.9360  134.8990 C   0  0  0  0  0  0  0  0  0  0  0  0
  130.6450  133.0890  133.5400 C   0  0  0  0  0  0  0  0  0  0  0  0
  131.5520  132.4240  132.7060 C   0  0  0  0  0  0  0  0  0  0  0  0
  132.5010  131.5920  133.2300 C   0  0  0  0  0  0  0  0  0  0  0  0
  133.3720  130.9470  132.4360 F   0  0  0  0  0  0  0  0  0  0  0  0
  132.5420  131.4220  134.6180 C   0  0  0  0  0  0  0  0  0  0  0  0
  133.7710  130.3480  135.2450 Cl  0  0  0  0  0  0  0  0  0  0  0  0
  131.6590  132.0720  135.4200 C   0  0  0  0  0  0  0  0  0  0  0  0
  128.5880  132.9100  136.3590 N   0  0  0  0  0  0  0  0  0  0  0  0
  127.7890  133.6680  137.3590 C   0  0  0  0  0  0  0  0  0  0  0  0
  126.3350  133.2820  137.1230 C   0  0  0  0  0  0  0  0  0  0  0  0
  126.1360  131.8160  137.4770 C   0  0  0  0  0  0  0  0  0  0  0  0
  125.8120  131.7820  138.8140 F   0  0  0  0  0  0  0  0  0  0  0  0
  125.0610  131.2390  136.6220 C   0  0  0  0  0  0  0  0  0  0  0  0
  124.4980  130.0490  137.2050 N   0  0  0  0  0  0  0  0  0  0  0  0
  124.5260  128.9710  136.2540 C   0  0  0  0  0  0  0  0  0  0  0  0
  124.8560  129.4060  134.8580 C   0  0  0  0  0  0  0  0  0  0  0  0
  125.7020  128.4840  134.1880 O   0  0  0  0  0  0  0  0  0  0  0  0
  126.8470  128.9420  133.5560 C   0  0  0  0  0  0  0  0  0  0  0  0
  126.8090  129.7320  132.4420 C   0  0  0  0  0  0  0  0  0  0  0  0
  127.9580  130.1790  131.8270 C   0  0  0  0  0  0  0  0  0  0  0  0
  129.1670  129.8070  132.3650 C   0  0  0  0  0  0  0  0  0  0  0  0
  129.2710  129.0040  133.5000 C   0  0  0  0  0  0  0  0  0  0  0  0
  130.4780  128.6320  134.0340 C   0  0  0  0  0  0  0  0  0  0  0  0
  130.4880  127.8380  135.1480 C   0  0  0  0  0  0  0  0  0  0  0  0
  129.2820  127.4380  135.6970 C   0  0  0  0  0  0  0  0  0  0  0  0
  128.0930  127.8060  135.1670 N   0  0  0  0  0  0  0  0  0  0  0  0
  128.0800  128.5950  134.0600 C   0  0  0  0  0  0  0  0  0  0  0  0
  127.4140  131.0480  137.2870 C   0  0  0  0  0  0  0  0  0  0  0  0
  128.0810  131.6410  135.9850 C   0  0  0  0  0  0  0  0  0  0  0  0
  1  2  2  0
  2  3  1  0
  3  4  2  0
  4  5  1  0
  5  6  2  0
  6  7  1  0
  6  8  1  0
  8  9  1  0
  8 10  2  0
  2 11  1  0
 11 12  1  0
 12 13  1  0
 13 14  1  0
 14 15  1  0
 14 16  1  0
 16 17  1  0
 17 18  1  0
 18 19  1  0
 19 20  1  0
 20 21  1  0
 21 22  2  0
 22 23  1  0
 23 24  2  0
 24 25  1  0
 25 26  2  0
 26 27  1  0
 27 28  2  0
 28 29  1  0
 29 30  2  0
 14 31  1  0
 31 32  1  0
 10  3  1  0
 32 11  1  0
 30 21  1  0
 30 25  1  0
M  END
$$$$

     RDKit          3D

 28 30  0  0  0  0  0  0  0  0999 V2000
  128.4470  126.7310  131.8730 O   0  0  0  0  0  0  0  0  0  0  0  0
  127.6800  127.1650  132.8310 C   0  0  0  0  0  0  0  0  0  0  0  0
  127.1150  128.4690  132.6410 C   0  0  0  0  0  0  0  0  0  0  0  0
  125.7840  128.5640  132.1550 C   0  0  0  0  0  0  0  0  0  0  0  0
  125.2230  129.7760  131.9140 C   0  0  0  0  0  0  0  0  0  0  0  0
  125.8830  130.9600  132.1170 C   0  0  0  0  0  0  0  0  0  0  0  0
  125.2880  132.1720  131.8650 F   0  0  0  0  0  0  0  0  0  0  0  0
  127.1640  130.9190  132.5840 C   0  0  0  0  0  0  0  0  0  0  0  0
  128.1140  132.3560  132.8870 Cl  0  0  0  0  0  0  0  0  0  0  0  0
  127.7430  129.6660  132.8340 C   0  0  0  0  0  0  0  0  0  0  0  0
  127.5150  126.2980  133.9150 N   0  0  0  0  0  0  0  0  0  0  0  0
  128.1660  124.9660  133.8350 C   0  0  0  0  0  0  0  0  0  0  0  0
  127.5380  124.1700  134.9840 C   0  0  0  0  0  0  0  0  0  0  0  0
  128.0520  124.7610  136.2940 C   0  0  0  0  0  0  0  0  0  0  0  0
  129.4170  124.6130  136.3150 F   0  0  0  0  0  0  0  0  0  0  0  0
  127.3310  124.1160  137.4280 C   0  0  0  0  0  0  0  0  0  0  0  0
  126.9080  125.0430  138.4060 N   0  0  0  0  0  0  0  0  0  0  0  0
  125.6890  124.7990  139.0870 C   0  0  0  0  0  0  0  0  0  0  0  0
  124.5600  125.6550  138.5390 C   0  0  0  0  0  0  0  0  0  0  0  0
  124.7680  127.3390  139.0940 S   0  0  0  0  0  0  0  0  0  0  0  0
  125.0030  128.4620  137.7400 C   0  0  0  0  0  0  0  0  0  0  0  0
  126.1250  129.2910  137.7200 C   0  0  0  0  0  0  0  0  0  0  0  0
  126.3800  130.2020  136.7330 C   0  0  0  0  0  0  0  0  0  0  0  0
  125.4770  130.3020  135.7010 C   0  0  0  0  0  0  0  0  0  0  0  0
  124.3600  129.5130  135.6720 C   0  0  0  0  0  0  0  0  0  0  0  0
  124.1250  128.5970  136.6890 C   0  0  0  0  0  0  0  0  0  0  0  0
  127.7700  126.2520  136.3240 C   0  0  0  0  0  0  0  0  0  0  0  0
  126.8230  126.5730  135.1260 C   0  0  0  0  0  0  0  0  0  0  0  0
  1  2  2  0
  2  3  1  0
  3  4  2  0
  4  5  1  0
  5  6  2  0
  6  7  1  0
  6  8  1  0
  8  9  1  0
  8 10  2  0
  2 11  1  0
 11 12  1  0
 12 13  1  0
 13 14  1  0
 14 15  1  0
 14 16  1  0
 16 17  1  0
 17 18  1  0
 18 19  1  0
 19 20  1  0
 20 21  1  0
 21 22  2  0
 22 23  1  0
 23 24  2  0
 24 25  1  0
 25 26  2  0
 14 27  1  0
 27 28  1  0
 10  3  1  0
 28 11  1  0
 26 21  1  0
M  END
$$$$

     RDKit          3D

 30 32  0  0  0  0  0  0  0  0999 V2000
  131.5520  129.2890  135.7200 C   0  0  0  0  0  0  0  0  0  0  0  0
  130.6050  128.5580  135.0050 O   0  0  0  0  0  0  0  0  0  0  0  0
  130.5910  128.4390  133.6300 C   0  0  0  0  0  0  0  0  0  0  0  0
  129.8970  127.3940  133.0680 C   0  0  0  0  0  0  0  0  0  0  0  0
  129.8900  127.2880  131.6950 C   0  0  0  0  0  0  0  0  0  0  0  0
  130.5510  128.1890  130.8760 C   0  0  0  0  0  0  0  0  0  0  0  0
  130.5360  128.0690  129.4880 O   0  0  0  0  0  0  0  0  0  0  0  0
  131.5550  128.7010  128.7530 C   0  0  0  0  0  0  0  0  0  0  0  0
  132.4940  127.7240  128.1050 C   0  0  0  0  0  0  0  0  0  0  0  0
  133.7240  127.5020  128.7360 N   0  0  0  0  0  0  0  0  0  0  0  0
  134.1050  126.2010  129.1140 C   0  0  0  0  0  0  0  0  0  0  0  0
  133.6090  125.7540  130.4710 C   0  0  0  0  0  0  0  0  0  0  0  0
  132.2750  125.5030  130.4960 F   0  0  0  0  0  0  0  0  0  0  0  0
  133.9810  126.7780  131.5190 C   0  0  0  0  0  0  0  0  0  0  0  0
  133.5050  126.3510  132.8940 C   0  0  0  0  0  0  0  0  0  0  0  0
  133.5230  124.9600  133.1620 N   0  0  0  0  0  0  0  0  0  0  0  0
  133.0600  124.3990  134.3570 C   0  0  0  0  0  0  0  0  0  0  0  0
  133.2010  123.0930  134.3810 O   0  0  0  0  0  0  0  0  0  0  0  0
  132.4720  124.9450  135.5450 C   0  0  0  0  0  0  0  0  0  0  0  0
  133.2790  125.7250  136.4110 C   0  0  0  0  0  0  0  0  0  0  0  0
  132.7990  126.2950  137.5370 C   0  0  0  0  0  0  0  0  0  0  0  0
  131.4780  126.1280  137.8810 C   0  0  0  0  0  0  0  0  0  0  0  0
  131.0270  126.7170  139.0220 F   0  0  0  0  0  0  0  0  0  0  0  0
  130.6580  125.3920  137.0910 C   0  0  0  0  0  0  0  0  0  0  0  0
  128.9660  125.1620  137.5050 Cl  0  0  0  0  0  0  0  0  0  0  0  0
  131.1640  124.8000  135.9190 C   0  0  0  0  0  0  0  0  0  0  0  0
  134.0280  123.9720  132.1930 C   0  0  0  0  0  0  0  0  0  0  0  0
  134.3240  124.4630  130.8520 C   0  0  0  0  0  0  0  0  0  0  0  0
  131.2480  129.2390  131.4510 C   0  0  0  0  0  0  0  0  0  0  0  0
  131.2580  129.3490  132.8260 C   0  0  0  0  0  0  0  0  0  0  0  0
  1  2  1  0
  2  3  1  0
  3  4  2  0
  4  5  1  0
  5  6  2  0
  6  7  1  0
  7  8  1  0
  8  9  1  0
  9 10  1  0
 10 11  1  0
 11 12  1  0
 12 13  1  0
 12 14  1  0
 14 15  1  0
 15 16  1  0
 16 17  1  0
 17 18  2  0
 17 19  1  0
 19 20  2  0
 20 21  1  0
 21 22  2  0
 22 23  1  0
 22 24  1  0
 24 25  1  0
 24 26  2  0
 16 27  1  0
 27 28  1  0
  6 29  1  0
 29 30  2  0
 30  3  1  0
 28 12  1  0
 26 19  1  0
M  END
$$$$

     RDKit          3D

 28 30  0  0  0  0  0  0  0  0999 V2000
  120.2160  122.2840  141.2670 O   0  0  0  0  0  0  0  0  0  0  0  0
  121.3470  122.8150  140.9390 C   0  0  0  0  0  0  0  0  0  0  0  0
  122.4680  121.9220  140.8290 C   0  0  0  0  0  0  0  0  0  0  0  0
  122.9060  121.3090  139.6890 C   0  0  0  0  0  0  0  0  0  0  0  0
  123.9570  120.3820  139.6580 C   0  0  0  0  0  0  0  0  0  0  0  0
  124.5680  120.0810  140.8410 C   0  0  0  0  0  0  0  0  0  0  0  0
  125.5880  119.1910  140.8560 F   0  0  0  0  0  0  0  0  0  0  0  0
  124.1670  120.6670  142.0170 C   0  0  0  0  0  0  0  0  0  0  0  0
  124.9390  120.2970  143.5610 Cl  0  0  0  0  0  0  0  0  0  0  0  0
  123.1490  121.5590  142.0140 C   0  0  0  0  0  0  0  0  0  0  0  0
  121.3250  124.1940  140.7360 N   0  0  0  0  0  0  0  0  0  0  0  0
  122.4750  124.9740  140.4790 C   0  0  0  0  0  0  0  0  0  0  0  0
  122.3580  126.3650  141.0600 C   0  0  0  0  0  0  0  0  0  0  0  0
  121.0700  127.0830  140.7300 C   0  0  0  0  0  0  0  0  0  0  0  0
  120.5370  127.4630  141.9490 F   0  0  0  0  0  0  0  0  0  0  0  0
  121.3090  128.3160  139.9110 C   0  0  0  0  0  0  0  0  0  0  0  0
  122.0680  128.0480  138.7350 N   0  0  0  0  0  0  0  0  0  0  0  0
  121.4130  128.4100  137.5270 C   0  0  0  0  0  0  0  0  0  0  0  0
  121.6770  127.3360  136.4730 C   0  0  0  0  0  0  0  0  0  0  0  0
  122.2090  126.2200  137.1760 O   0  0  0  0  0  0  0  0  0  0  0  0
  122.4690  125.0440  136.4490 C   0  0  0  0  0  0  0  0  0  0  0  0
  122.9680  123.9050  136.9840 C   0  0  0  0  0  0  0  0  0  0  0  0
  123.2180  122.7650  136.2680 C   0  0  0  0  0  0  0  0  0  0  0  0
  122.9390  122.8030  134.9310 N   0  0  0  0  0  0  0  0  0  0  0  0
  122.4390  123.9300  134.3590 C   0  0  0  0  0  0  0  0  0  0  0  0
  122.1870  125.0740  135.0760 C   0  0  0  0  0  0  0  0  0  0  0  0
  120.0830  126.1480  140.0800 C   0  0  0  0  0  0  0  0  0  0  0  0
  120.0000  124.8290  140.7490 C   0  0  0  0  0  0  0  0  0  0  0  0
  1  2  2  0
  2  3  1  0
  3  4  2  0
  4  5  1  0
  5  6  2  0
  6  7  1  0
  6  8  1  0
  8  9  1  0
  8 10  2  0
  2 11  1  0
 11 12  1  0
 12 13  1  0
 13 14  1  0
 14 15  1  0
 14 16  1  0
 16 17  1  0
 17 18  1  0
 18 19  1  0
 19 20  1  0
 20 21  1  0
 21 22  2  0
 22 23  1  0
 23 24  2  0
 24 25  1  0
 25 26  2  0
 14 27  1  0
 27 28  1  0
 10  3  1  0
 28 11  1  0
 26 21  1  0
M  END
$$$$

     RDKit          3D

 30 32  0  0  0  0  0  0  0  0999 V2000
  131.7330  126.9700  134.7740 C   0  0  0  0  0  0  0  0  0  0  0  0
  130.4170  126.4820  134.9140 O   0  0  0  0  0  0  0  0  0  0  0  0
  129.4810  127.2760  135.5560 C   0  0  0  0  0  0  0  0  0  0  0  0
  129.4270  127.3820  136.9130 C   0  0  0  0  0  0  0  0  0  0  0  0
  128.4980  128.1690  137.5340 C   0  0  0  0  0  0  0  0  0  0  0  0
  127.5940  128.8740  136.7710 C   0  0  0  0  0  0  0  0  0  0  0  0
  127.6170  128.7940  135.4280 C   0  0  0  0  0  0  0  0  0  0  0  0
  128.5500  128.0000  134.7660 C   0  0  0  0  0  0  0  0  0  0  0  0
  128.5850  127.9120  133.4710 O   0  0  0  0  0  0  0  0  0  0  0  0
  128.6380  127.6960  132.2040 C   0  0  0  0  0  0  0  0  0  0  0  0
  129.3710  126.4280  131.7420 C   0  0  0  0  0  0  0  0  0  0  0  0
  128.8250  125.2680  132.3670 N   0  0  0  0  0  0  0  0  0  0  0  0
  127.4960  124.9120  131.9100 C   0  0  0  0  0  0  0  0  0  0  0  0
  126.9410  123.8960  132.8880 C   0  0  0  0  0  0  0  0  0  0  0  0
  126.9720  122.6150  132.3210 F   0  0  0  0  0  0  0  0  0  0  0  0
  127.7470  123.8630  134.1340 C   0  0  0  0  0  0  0  0  0  0  0  0
  127.1470  124.6870  135.2730 C   0  0  0  0  0  0  0  0  0  0  0  0
  125.7770  124.3550  135.5000 N   0  0  0  0  0  0  0  0  0  0  0  0
  124.9150  124.7790  136.5080 C   0  0  0  0  0  0  0  0  0  0  0  0
  123.7240  124.2680  136.4550 O   0  0  0  0  0  0  0  0  0  0  0  0
  125.1570  125.6920  137.5850 C   0  0  0  0  0  0  0  0  0  0  0  0
  124.4480  126.9050  137.5850 C   0  0  0  0  0  0  0  0  0  0  0  0
  124.6080  127.8040  138.5970 C   0  0  0  0  0  0  0  0  0  0  0  0
  125.4510  127.5930  139.6600 C   0  0  0  0  0  0  0  0  0  0  0  0
  125.6120  128.8000  140.9410 Cl  0  0  0  0  0  0  0  0  0  0  0  0
  126.1590  126.4200  139.6900 C   0  0  0  0  0  0  0  0  0  0  0  0
  127.2390  126.1340  141.0320 Cl  0  0  0  0  0  0  0  0  0  0  0  0
  126.0010  125.4930  138.6550 C   0  0  0  0  0  0  0  0  0  0  0  0
  125.1920  123.4180  134.4850 C   0  0  0  0  0  0  0  0  0  0  0  0
  125.4740  124.1460  133.1660 C   0  0  0  0  0  0  0  0  0  0  0  0
  1  2  1  0
  2  3  1  0
  3  4  2  0
  4  5  1  0
  5  6  2  0
  6  7  1  0
  7  8  2  0
  8  9  1  0
  9 10  1  0
 10 11  1  0
 11 12  1  0
 12 13  1  0
 13 14  1  0
 14 15  1  0
 14 16  1  0
 16 17  1  0
 17 18  1  0
 18 19  1  0
 19 20  2  0
 19 21  1  0
 21 22  2  0
 22 23  1  0
 23 24  2  0
 24 25  1  0
 24 26  1  0
 26 27  1  0
 26 28  2  0
 18 29  1  0
 29 30  1  0
  8  3  1  0
 30 14  1  0
 28 21  1  0
M  END
$$$$

     RDKit          3D

 27 29  0  0  0  0  0  0  0  0999 V2000
  132.9920  125.7760  130.6310 C   0  0  0  0  0  0  0  0  0  0  0  0
  131.6390  125.1560  130.4990 C   0  0  0  0  0  0  0  0  0  0  0  0
  130.4820  125.8930  130.6730 C   0  0  0  0  0  0  0  0  0  0  0  0
  129.2760  125.3020  130.5480 N   0  0  0  0  0  0  0  0  0  0  0  0
  129.1380  123.9960  130.2530 C   0  0  0  0  0  0  0  0  0  0  0  0
  127.7720  123.3990  130.1280 C   0  0  0  0  0  0  0  0  0  0  0  0
  126.8590  124.2180  130.9480 N   0  0  0  0  0  0  0  0  0  0  0  0
  126.3320  123.3190  131.9420 C   0  0  0  0  0  0  0  0  0  0  0  0
  126.5150  123.7820  133.3610 C   0  0  0  0  0  0  0  0  0  0  0  0
  125.2930  123.6590  133.9970 F   0  0  0  0  0  0  0  0  0  0  0  0
  126.9710  125.2200  133.4110 C   0  0  0  0  0  0  0  0  0  0  0  0
  127.8470  125.4020  134.6320 C   0  0  0  0  0  0  0  0  0  0  0  0
  129.1360  124.7290  134.3010 N   0  0  0  0  0  0  0  0  0  0  0  0
  130.3180  125.4460  134.4790 C   0  0  0  0  0  0  0  0  0  0  0  0
  130.1150  126.6610  134.9310 O   0  0  0  0  0  0  0  0  0  0  0  0
  131.6910  125.1120  134.2660 C   0  0  0  0  0  0  0  0  0  0  0  0
  132.1140  123.8610  133.8970 C   0  0  0  0  0  0  0  0  0  0  0  0
  133.4830  123.6380  133.7140 C   0  0  0  0  0  0  0  0  0  0  0  0
  134.4300  124.6150  133.8840 C   0  0  0  0  0  0  0  0  0  0  0  0
  135.7570  124.3350  133.6890 F   0  0  0  0  0  0  0  0  0  0  0  0
  134.0080  125.8700  134.2520 C   0  0  0  0  0  0  0  0  0  0  0  0
  135.2280  127.1140  134.4680 Cl  0  0  0  0  0  0  0  0  0  0  0  0
  132.6750  126.1130  134.4390 C   0  0  0  0  0  0  0  0  0  0  0  0
  128.9640  123.3870  133.8280 C   0  0  0  0  0  0  0  0  0  0  0  0
  127.5290  122.8600  134.0000 C   0  0  0  0  0  0  0  0  0  0  0  0
  130.2620  123.2760  130.0850 N   0  0  0  0  0  0  0  0  0  0  0  0
  131.4940  123.8180  130.1990 C   0  0  0  0  0  0  0  0  0  0  0  0
  1  2  1  0
  2  3  2  0
  3  4  1  0
  4  5  2  0
  5  6  1  0
  6  7  1  0
  7  8  1  0
  8  9  1  0
  9 10  1  0
  9 11  1  0
 11 12  1  0
 12 13  1  0
 13 14  1  0
 14 15  2  0
 14 16  1  0
 16 17  2  0
 17 18  1  0
 18 19  2  0
 19 20  1  0
 19 21  1  0
 21 22  1  0
 21 23  2  0
 13 24  1  0
 24 25  1  0
  5 26  1  0
 26 27  2  0
 27  2  1  0
 25  9  1  0
 23 16  1  0
M  END
$$$$

     RDKit          3D

 32 34  0  0  0  0  0  0  0  0999 V2000
  135.3830  122.9180  128.8030 C   0  0  0  0  0  0  0  0  0  0  0  0
  133.9510  122.6040  129.1970 C   0  0  0  0  0  0  0  0  0  0  0  0
  133.0800  122.6270  128.2990 O   0  0  0  0  0  0  0  0  0  0  0  0
  133.6110  122.3000  130.5180 N   0  0  0  0  0  0  0  0  0  0  0  0
  132.3140  121.9920  131.0010 C   0  0  0  0  0  0  0  0  0  0  0  0
  131.6730  120.7930  130.8820 C   0  0  0  0  0  0  0  0  0  0  0  0
  130.3880  120.5770  131.3920 C   0  0  0  0  0  0  0  0  0  0  0  0
  129.7140  121.5860  132.0430 C   0  0  0  0  0  0  0  0  0  0  0  0
  130.3340  122.8050  132.1790 C   0  0  0  0  0  0  0  0  0  0  0  0
  129.7680  123.8680  132.7980 O   0  0  0  0  0  0  0  0  0  0  0  0
  129.8630  125.2230  132.6180 C   0  0  0  0  0  0  0  0  0  0  0  0
  130.0250  126.0700  133.8340 C   0  0  0  0  0  0  0  0  0  0  0  0
  131.2270  126.8740  133.8090 N   0  0  0  0  0  0  0  0  0  0  0  0
  131.8630  126.9600  132.5320 C   0  0  0  0  0  0  0  0  0  0  0  0
  133.2660  127.4730  132.7680 C   0  0  0  0  0  0  0  0  0  0  0  0
  133.3460  128.8130  132.5040 F   0  0  0  0  0  0  0  0  0  0  0  0
  133.5970  127.2920  134.2600 C   0  0  0  0  0  0  0  0  0  0  0  0
  134.8670  126.4580  134.3660 C   0  0  0  0  0  0  0  0  0  0  0  0
  134.6560  125.1310  133.7140 N   0  0  0  0  0  0  0  0  0  0  0  0
  134.8520  123.9910  134.5000 C   0  0  0  0  0  0  0  0  0  0  0  0
  135.2210  124.2040  135.7410 O   0  0  0  0  0  0  0  0  0  0  0  0
  134.7060  122.6180  134.1410 C   0  0  0  0  0  0  0  0  0  0  0  0
  133.5350  121.9230  134.4900 C   0  0  0  0  0  0  0  0  0  0  0  0
  133.3010  120.6070  134.2070 C   0  0  0  0  0  0  0  0  0  0  0  0
  134.2680  119.8950  133.5350 C   0  0  0  0  0  0  0  0  0  0  0  0
  133.9480  118.2040  133.1820 Cl  0  0  0  0  0  0  0  0  0  0  0  0
  135.4330  120.5060  133.1640 C   0  0  0  0  0  0  0  0  0  0  0  0
  136.6630  119.6060  132.3090 Cl  0  0  0  0  0  0  0  0  0  0  0  0
  135.6300  121.8540  133.4730 C   0  0  0  0  0  0  0  0  0  0  0  0
  134.2870  125.2180  132.3330 C   0  0  0  0  0  0  0  0  0  0  0  0
  134.2730  126.7090  131.9350 C   0  0  0  0  0  0  0  0  0  0  0  0
  131.6200  122.9880  131.6570 C   0  0  0  0  0  0  0  0  0  0  0  0
  1  2  1  0
  2  3  2  0
  2  4  1  0
  4  5  1  0
  5  6  2  0
  6  7  1  0
  7  8  2  0
  8  9  1  0
  9 10  1  0
 10 11  1  0
 11 12  1  0
 12 13  1  0
 13 14  1  0
 14 15  1  0
 15 16  1  0
 15 17  1  0
 17 18  1  0
 18 19  1  0
 19 20  1  0
 20 21  2  0
 20 22  1  0
 22 23  2  0
 23 24  1  0
 24 25  2  0
 25 26  1  0
 25 27  1  0
 27 28  1  0
 27 29  2  0
 19 30  1  0
 30 31  1  0
  9 32  2  0
 32  5  1  0
 31 15  1  0
 29 22  1  0
M  END
$$$$

     RDKit          3D

 28 30  0  0  0  0  0  0  0  0999 V2000
  127.6010  125.9690  138.4210 O   0  0  0  0  0  0  0  0  0  0  0  0
  127.4880  125.8920  137.1160 C   0  0  0  0  0  0  0  0  0  0  0  0
  127.6690  124.5700  136.6060 C   0  0  0  0  0  0  0  0  0  0  0  0
  128.9690  124.1280  136.3110 C   0  0  0  0  0  0  0  0  0  0  0  0
  129.2270  122.8990  135.7400 C   0  0  0  0  0  0  0  0  0  0  0  0
  128.1730  122.0640  135.4450 C   0  0  0  0  0  0  0  0  0  0  0  0
  128.4100  120.8380  134.8760 F   0  0  0  0  0  0  0  0  0  0  0  0
  126.8970  122.4730  135.7250 C   0  0  0  0  0  0  0  0  0  0  0  0
  125.5630  121.4110  135.3480 Cl  0  0  0  0  0  0  0  0  0  0  0  0
  126.6440  123.7240  136.3060 C   0  0  0  0  0  0  0  0  0  0  0  0
  127.2180  127.0550  136.4160 N   0  0  0  0  0  0  0  0  0  0  0  0
  126.9660  128.2850  137.1990 C   0  0  0  0  0  0  0  0  0  0  0  0
  126.3190  129.3300  136.3690 C   0  0  0  0  0  0  0  0  0  0  0  0
  125.5170  128.9300  135.1920 C   0  0  0  0  0  0  0  0  0  0  0  0
  125.8370  129.7920  134.1420 F   0  0  0  0  0  0  0  0  0  0  0  0
  124.0320  129.0010  135.4250 C   0  0  0  0  0  0  0  0  0  0  0  0
  123.6680  128.9970  136.7840 N   0  0  0  0  0  0  0  0  0  0  0  0
  122.5620  128.2010  137.1850 C   0  0  0  0  0  0  0  0  0  0  0  0
  122.8060  126.7170  136.9990 C   0  0  0  0  0  0  0  0  0  0  0  0
  123.9140  126.3030  137.6660 O   0  0  0  0  0  0  0  0  0  0  0  0
  124.2560  125.9340  138.9150 C   0  0  0  0  0  0  0  0  0  0  0  0
  124.4080  124.5560  139.1940 C   0  0  0  0  0  0  0  0  0  0  0  0
  124.7490  124.0870  140.4260 C   0  0  0  0  0  0  0  0  0  0  0  0
  124.9560  124.9630  141.4500 N   0  0  0  0  0  0  0  0  0  0  0  0
  124.8180  126.2640  141.2070 N   0  0  0  0  0  0  0  0  0  0  0  0
  124.4840  126.7480  140.0040 C   0  0  0  0  0  0  0  0  0  0  0  0
  125.7930  127.5390  134.6440 C   0  0  0  0  0  0  0  0  0  0  0  0
  127.2250  127.2330  135.0000 C   0  0  0  0  0  0  0  0  0  0  0  0
  1  2  2  0
  2  3  1  0
  3  4  2  0
  4  5  1  0
  5  6  2  0
  6  7  1  0
  6  8  1  0
  8  9  1  0
  8 10  2  0
  2 11  1  0
 11 12  1  0
 12 13  1  0
 13 14  1  0
 14 15  1  0
 14 16  1  0
 16 17  1  0
 17 18  1  0
 18 19  1  0
 19 20  1  0
 20 21  1  0
 21 22  2  0
 22 23  1  0
 23 24  2  0
 24 25  1  0
 25 26  2  0
 14 27  1  0
 27 28  1  0
 10  3  1  0
 28 11  1  0
 26 21  1  0
M  END
$$$$

     RDKit          3D

 29 31  0  0  0  0  0  0  0  0999 V2000
  124.2310  123.6180  139.7980 O   0  0  0  0  0  0  0  0  0  0  0  0
  124.6830  124.8510  139.6720 C   0  0  0  0  0  0  0  0  0  0  0  0
  125.5980  125.0950  138.5840 C   0  0  0  0  0  0  0  0  0  0  0  0
  125.0530  125.1770  137.2750 C   0  0  0  0  0  0  0  0  0  0  0  0
  125.8250  125.4590  136.1840 C   0  0  0  0  0  0  0  0  0  0  0  0
  127.1810  125.6800  136.2860 C   0  0  0  0  0  0  0  0  0  0  0  0
  127.9200  125.9610  135.1900 F   0  0  0  0  0  0  0  0  0  0  0  0
  127.7380  125.6070  137.5410 C   0  0  0  0  0  0  0  0  0  0  0  0
  129.4640  125.8690  137.7140 Cl  0  0  0  0  0  0  0  0  0  0  0  0
  126.9360  125.3140  138.6570 C   0  0  0  0  0  0  0  0  0  0  0  0
  124.2150  125.7680  140.6120 N   0  0  0  0  0  0  0  0  0  0  0  0
  124.4450  127.1690  140.6260 C   0  0  0  0  0  0  0  0  0  0  0  0
  125.4110  127.4640  141.7410 C   0  0  0  0  0  0  0  0  0  0  0  0
  124.8370  126.9240  143.0550 C   0  0  0  0  0  0  0  0  0  0  0  0
  125.7200  126.0500  143.5850 F   0  0  0  0  0  0  0  0  0  0  0  0
  124.6440  128.1680  143.9570 C   0  0  0  0  0  0  0  0  0  0  0  0
  125.7000  128.3140  144.8780 N   0  0  0  0  0  0  0  0  0  0  0  0
  126.6530  129.3360  144.6540 C   0  0  0  0  0  0  0  0  0  0  0  0
  128.0230  128.7170  144.5770 C   0  0  0  0  0  0  0  0  0  0  0  0
  128.4070  128.3430  143.2720 O   0  0  0  0  0  0  0  0  0  0  0  0
  128.8100  127.0450  143.0500 C   0  0  0  0  0  0  0  0  0  0  0  0
  129.0590  126.6190  141.7640 C   0  0  0  0  0  0  0  0  0  0  0  0
  129.4630  125.3310  141.4620 C   0  0  0  0  0  0  0  0  0  0  0  0
  129.6110  124.4720  142.5250 C   0  0  0  0  0  0  0  0  0  0  0  0
  130.1290  122.8250  142.1890 Cl  0  0  0  0  0  0  0  0  0  0  0  0
  129.3790  124.8350  143.8230 C   0  0  0  0  0  0  0  0  0  0  0  0
  128.9720  126.1480  144.0750 C   0  0  0  0  0  0  0  0  0  0  0  0
  123.4960  126.2670  142.8660 C   0  0  0  0  0  0  0  0  0  0  0  0
  123.4380  125.2710  141.7750 C   0  0  0  0  0  0  0  0  0  0  0  0
  1  2  2  0
  2  3  1  0
  3  4  2  0
  4  5  1  0
  5  6  2  0
  6  7  1  0
  6  8  1  0
  8  9  1  0
  8 10  2  0
  2 11  1  0
 11 12  1  0
 12 13  1  0
 13 14  1  0
 14 15  1  0
 14 16  1  0
 16 17  1  0
 17 18  1  0
 18 19  1  0
 19 20  1  0
 20 21  1  0
 21 22  2  0
 22 23  1  0
 23 24  2  0
 24 25  1  0
 24 26  1  0
 26 27  2  0
 14 28  1  0
 28 29  1  0
 10  3  1  0
 29 11  1  0
 27 21  1  0
M  END
$$$$

     RDKit          3D

 31 33  0  0  0  0  0  0  0  0999 V2000
  133.2170  128.6590  140.5570 C   0  0  0  0  0  0  0  0  0  0  0  0
  132.6330  129.9310  140.9850 N   0  0  0  0  0  0  0  0  0  0  0  0
  133.2710  131.1910  140.6690 C   0  0  0  0  0  0  0  0  0  0  0  0
  131.4260  129.8450  141.7170 C   0  0  0  0  0  0  0  0  0  0  0  0
  130.4570  128.9550  141.2700 C   0  0  0  0  0  0  0  0  0  0  0  0
  129.2570  128.8130  141.9190 C   0  0  0  0  0  0  0  0  0  0  0  0
  129.0180  129.5980  143.0610 C   0  0  0  0  0  0  0  0  0  0  0  0
  129.9480  130.4900  143.5360 C   0  0  0  0  0  0  0  0  0  0  0  0
  129.7160  131.2780  144.6690 O   0  0  0  0  0  0  0  0  0  0  0  0
  129.4720  132.6310  144.4780 C   0  0  0  0  0  0  0  0  0  0  0  0
  128.1050  133.0620  144.9300 C   0  0  0  0  0  0  0  0  0  0  0  0
  127.1390  133.1730  143.9020 N   0  0  0  0  0  0  0  0  0  0  0  0
  127.3190  134.1080  142.8610 C   0  0  0  0  0  0  0  0  0  0  0  0
  126.9010  133.5760  141.4910 C   0  0  0  0  0  0  0  0  0  0  0  0
  125.8080  134.2650  141.0620 F   0  0  0  0  0  0  0  0  0  0  0  0
  126.6150  132.1140  141.6490 C   0  0  0  0  0  0  0  0  0  0  0  0
  126.9620  131.2290  140.5060 C   0  0  0  0  0  0  0  0  0  0  0  0
  128.2130  131.6690  139.8400 N   0  0  0  0  0  0  0  0  0  0  0  0
  128.5340  131.0940  138.6300 C   0  0  0  0  0  0  0  0  0  0  0  0
  127.7520  130.1240  138.1950 O   0  0  0  0  0  0  0  0  0  0  0  0
  129.6510  131.4440  137.7850 C   0  0  0  0  0  0  0  0  0  0  0  0
  129.6650  132.4900  136.9160 C   0  0  0  0  0  0  0  0  0  0  0  0
  130.7900  132.6780  136.1120 C   0  0  0  0  0  0  0  0  0  0  0  0
  131.8880  131.8670  136.1410 C   0  0  0  0  0  0  0  0  0  0  0  0
  132.9850  132.0200  135.3800 F   0  0  0  0  0  0  0  0  0  0  0  0
  131.8280  130.8100  137.0420 C   0  0  0  0  0  0  0  0  0  0  0  0
  133.2220  129.7170  137.1290 Cl  0  0  0  0  0  0  0  0  0  0  0  0
  130.7610  130.5890  137.8420 C   0  0  0  0  0  0  0  0  0  0  0  0
  128.9620  132.5940  140.6060 C   0  0  0  0  0  0  0  0  0  0  0  0
  128.0840  133.8610  140.5890 C   0  0  0  0  0  0  0  0  0  0  0  0
  131.1330  130.5820  142.8390 C   0  0  0  0  0  0  0  0  0  0  0  0
  1  2  1  0
  2  3  1  0
  2  4  1  0
  4  5  2  0
  5  6  1  0
  6  7  2  0
  7  8  1  0
  8  9  1  0
  9 10  1  0
 10 11  1  0
 11 12  1  0
 12 13  1  0
 13 14  1  0
 14 15  1  0
 14 16  1  0
 16 17  1  0
 17 18  1  0
 18 19  1  0
 19 20  2  0
 19 21  1  0
 21 22  2  0
 22 23  1  0
 23 24  2  0
 24 25  1  0
 24 26  1  0
 26 27  1  0
 26 28  2  0
 18 29  1  0
 29 30  1  0
  8 31  2  0
 31  4  1  0
 30 14  1  0
 28 21  1  0
M  END
$$$$

     RDKit          3D

 28 30  0  0  0  0  0  0  0  0999 V2000
  129.7390  125.1750  134.6040 O   0  0  0  0  0  0  0  0  0  0  0  0
  129.0890  124.0280  134.5310 C   0  0  0  0  0  0  0  0  0  0  0  0
  129.4060  123.0620  135.5470 C   0  0  0  0  0  0  0  0  0  0  0  0
  130.3770  122.0990  135.2160 C   0  0  0  0  0  0  0  0  0  0  0  0
  130.8080  121.1730  136.1190 C   0  0  0  0  0  0  0  0  0  0  0  0
  130.3150  121.1320  137.4000 C   0  0  0  0  0  0  0  0  0  0  0  0
  130.7630  120.2000  138.2800 F   0  0  0  0  0  0  0  0  0  0  0  0
  129.3640  122.0670  137.7370 C   0  0  0  0  0  0  0  0  0  0  0  0
  128.7300  122.0230  139.3740 Cl  0  0  0  0  0  0  0  0  0  0  0  0
  128.9260  123.0070  136.8180 C   0  0  0  0  0  0  0  0  0  0  0  0
  128.1930  123.8920  133.5070 N   0  0  0  0  0  0  0  0  0  0  0  0
  128.0950  125.0000  132.4970 C   0  0  0  0  0  0  0  0  0  0  0  0
  128.5930  124.3410  131.2270 C   0  0  0  0  0  0  0  0  0  0  0  0
  127.8560  123.0910  130.8530 C   0  0  0  0  0  0  0  0  0  0  0  0
  126.5900  123.3510  130.3720 F   0  0  0  0  0  0  0  0  0  0  0  0
  128.6370  122.3930  129.7710 C   0  0  0  0  0  0  0  0  0  0  0  0
  128.5920  120.9950  129.9290 N   0  0  0  0  0  0  0  0  0  0  0  0
  129.6840  120.2090  129.4770 C   0  0  0  0  0  0  0  0  0  0  0  0
  130.3040  119.5780  130.7310 C   0  0  0  0  0  0  0  0  0  0  0  0
  131.5240  120.1430  130.9730 O   0  0  0  0  0  0  0  0  0  0  0  0
  132.0380  121.3920  130.8570 C   0  0  0  0  0  0  0  0  0  0  0  0
  131.6640  122.2810  131.8870 C   0  0  0  0  0  0  0  0  0  0  0  0
  132.1360  123.5690  131.8620 C   0  0  0  0  0  0  0  0  0  0  0  0
  132.9530  123.9740  130.8530 C   0  0  0  0  0  0  0  0  0  0  0  0
  133.3000  123.1250  129.8850 N   0  0  0  0  0  0  0  0  0  0  0  0
  132.8620  121.8520  129.8660 C   0  0  0  0  0  0  0  0  0  0  0  0
  127.7650  122.1100  132.0290 C   0  0  0  0  0  0  0  0  0  0  0  0
  127.2520  122.8550  133.2510 C   0  0  0  0  0  0  0  0  0  0  0  0
  1  2  2  0
  2  3  1  0
  3  4  2  0
  4  5  1  0
  5  6  2  0
  6  7  1  0
  6  8  1  0
  8  9  1  0
  8 10  2  0
  2 11  1  0
 11 12  1  0
 12 13  1  0
 13 14  1  0
 14 15  1  0
 14 16  1  0
 16 17  1  0
 17 18  1  0
 18 19  1  0
 19 20  1  0
 20 21  1  0
 21 22  2  0
 22 23  1  0
 23 24  2  0
 24 25  1  0
 25 26  2  0
 14 27  1  0
 27 28  1  0
 10  3  1  0
 28 11  1  0
 26 21  1  0
M  END
$$$$

     RDKit          3D

 28 30  0  0  0  0  0  0  0  0999 V2000
  126.2640  124.1130  135.6400 O   0  0  0  0  0  0  0  0  0  0  0  0
  127.5410  123.7660  135.5870 C   0  0  0  0  0  0  0  0  0  0  0  0
  127.8110  122.5020  134.9760 C   0  0  0  0  0  0  0  0  0  0  0  0
  128.7260  121.5800  135.3840 C   0  0  0  0  0  0  0  0  0  0  0  0
  128.9550  120.3540  134.7290 C   0  0  0  0  0  0  0  0  0  0  0  0
  128.2100  120.0710  133.6100 C   0  0  0  0  0  0  0  0  0  0  0  0
  128.4530  118.5630  132.7580 Cl  0  0  0  0  0  0  0  0  0  0  0  0
  127.2700  120.9760  133.1580 C   0  0  0  0  0  0  0  0  0  0  0  0
  126.3170  120.6000  131.7150 Cl  0  0  0  0  0  0  0  0  0  0  0  0
  127.0710  122.1640  133.8210 C   0  0  0  0  0  0  0  0  0  0  0  0
  128.3660  124.7410  136.1590 N   0  0  0  0  0  0  0  0  0  0  0  0
  127.6950  125.9510  136.6830 C   0  0  0  0  0  0  0  0  0  0  0  0
  128.3100  126.4970  137.9140 C   0  0  0  0  0  0  0  0  0  0  0  0
  129.8280  126.4400  137.8320 C   0  0  0  0  0  0  0  0  0  0  0  0
  130.2730  126.9280  139.0730 F   0  0  0  0  0  0  0  0  0  0  0  0
  130.3790  127.3510  136.8020 C   0  0  0  0  0  0  0  0  0  0  0  0
  131.6610  127.8600  136.9460 N   0  0  0  0  0  0  0  0  0  0  0  0
  132.5530  127.9770  135.8810 C   0  0  0  0  0  0  0  0  0  0  0  0
  133.3000  126.7030  135.5350 C   0  0  0  0  0  0  0  0  0  0  0  0
  133.1400  126.3130  134.1940 O   0  0  0  0  0  0  0  0  0  0  0  0
  132.3680  125.2790  133.7280 C   0  0  0  0  0  0  0  0  0  0  0  0
  131.2220  125.4890  132.9980 C   0  0  0  0  0  0  0  0  0  0  0  0
  130.4420  124.4410  132.5270 C   0  0  0  0  0  0  0  0  0  0  0  0
  130.8270  123.1470  132.8000 C   0  0  0  0  0  0  0  0  0  0  0  0
  131.9790  122.9610  133.5350 C   0  0  0  0  0  0  0  0  0  0  0  0
  132.7060  124.0060  133.9710 N   0  0  0  0  0  0  0  0  0  0  0  0
  130.1860  125.0020  137.7320 C   0  0  0  0  0  0  0  0  0  0  0  0
  129.7820  124.6150  136.2690 C   0  0  0  0  0  0  0  0  0  0  0  0
  1  2  2  0
  2  3  1  0
  3  4  2  0
  4  5  1  0
  5  6  2  0
  6  7  1  0
  6  8  1  0
  8  9  1  0
  8 10  2  0
  2 11  1  0
 11 12  1  0
 12 13  1  0
 13 14  1  0
 14 15  1  0
 14 16  1  0
 16 17  1  0
 17 18  1  0
 18 19  1  0
 19 20  1  0
 20 21  1  0
 21 22  2  0
 22 23  1  0
 23 24  2  0
 24 25  1  0
 25 26  2  0
 14 27  1  0
 27 28  1  0
 10  3  1  0
 28 11  1  0
 26 21  1  0
M  END
$$$$

     RDKit          3D

 31 34  0  0  0  0  0  0  0  0999 V2000
  128.7010  122.8250  135.4510 O   0  0  0  0  0  0  0  0  0  0  0  0
  128.9720  124.1240  135.3900 C   0  0  0  0  0  0  0  0  0  0  0  0
  129.8940  124.6140  136.3700 C   0  0  0  0  0  0  0  0  0  0  0  0
  129.4820  124.5790  137.7190 C   0  0  0  0  0  0  0  0  0  0  0  0
  130.2860  125.0430  138.7220 C   0  0  0  0  0  0  0  0  0  0  0  0
  131.5310  125.5690  138.4850 C   0  0  0  0  0  0  0  0  0  0  0  0
  132.3260  126.0300  139.4680 F   0  0  0  0  0  0  0  0  0  0  0  0
  131.9340  125.6050  137.1750 C   0  0  0  0  0  0  0  0  0  0  0  0
  133.5120  126.2640  136.8040 Cl  0  0  0  0  0  0  0  0  0  0  0  0
  131.1220  125.1310  136.1240 C   0  0  0  0  0  0  0  0  0  0  0  0
  128.3000  124.7870  134.3720 N   0  0  0  0  0  0  0  0  0  0  0  0
  127.3950  124.0030  133.4810 C   0  0  0  0  0  0  0  0  0  0  0  0
  127.7140  124.1960  132.0260 C   0  0  0  0  0  0  0  0  0  0  0  0
  128.0770  125.6220  131.7530 C   0  0  0  0  0  0  0  0  0  0  0  0
  129.4800  125.7950  131.8970 F   0  0  0  0  0  0  0  0  0  0  0  0
  127.6540  126.1260  130.4240 C   0  0  0  0  0  0  0  0  0  0  0  0
  127.4930  127.4630  130.1730 N   0  0  0  0  0  0  0  0  0  0  0  0
  128.5330  128.3260  129.7800 C   0  0  0  0  0  0  0  0  0  0  0  0
  128.3860  129.6010  130.5830 C   0  0  0  0  0  0  0  0  0  0  0  0
  129.5690  129.9180  131.2070 O   0  0  0  0  0  0  0  0  0  0  0  0
  129.9770  129.5550  132.4530 C   0  0  0  0  0  0  0  0  0  0  0  0
  129.4640  129.9850  133.6460 C   0  0  0  0  0  0  0  0  0  0  0  0
  129.9670  129.5320  134.8770 C   0  0  0  0  0  0  0  0  0  0  0  0
  130.9950  128.6380  134.9440 C   0  0  0  0  0  0  0  0  0  0  0  0
  131.5300  128.1870  133.7550 C   0  0  0  0  0  0  0  0  0  0  0  0
  131.0380  128.6300  132.5780 C   0  0  0  0  0  0  0  0  0  0  0  0
  131.7970  127.9860  131.4660 C   0  0  0  0  0  0  0  0  0  0  0  0
  132.7650  127.0810  132.1470 C   0  0  0  0  0  0  0  0  0  0  0  0
  132.5930  127.2650  133.5710 N   0  0  0  0  0  0  0  0  0  0  0  0
  127.4850  126.4590  132.8740 C   0  0  0  0  0  0  0  0  0  0  0  0
  128.3770  126.1910  134.1030 C   0  0  0  0  0  0  0  0  0  0  0  0
  1  2  2  0
  2  3  1  0
  3  4  2  0
  4  5  1  0
  5  6  2  0
  6  7  1  0
  6  8  1  0
  8  9  1  0
  8 10  2  0
  2 11  1  0
 11 12  1  0
 12 13  1  0
 13 14  1  0
 14 15  1  0
 14 16  1  0
 16 17  1  0
 17 18  1  0
 18 19  1  0
 19 20  1  0
 20 21  1  0
 21 22  2  0
 22 23  1  0
 23 24  2  0
 24 25  1  0
 25 26  2  0
 26 27  1  0
 27 28  1  0
 28 29  1  0
 14 30  1  0
 30 31  1  0
 10  3  1  0
 31 11  1  0
 26 21  1  0
 29 25  1  0
M  END
$$$$

     RDKit          3D

 33 36  0  0  0  0  0  0  0  0999 V2000
  131.8240  125.8440  133.7230 C   0  0  0  0  0  0  0  0  0  0  0  0
  133.0920  126.1300  134.4750 C   0  0  0  0  0  0  0  0  0  0  0  0
  134.1350  125.0640  134.2820 C   0  0  0  0  0  0  0  0  0  0  0  0
  132.7340  126.3290  135.9180 C   0  0  0  0  0  0  0  0  0  0  0  0
  133.7020  127.4030  136.3300 C   0  0  0  0  0  0  0  0  0  0  0  0
  134.1450  127.8710  137.5380 C   0  0  0  0  0  0  0  0  0  0  0  0
  135.0630  128.8910  137.6210 C   0  0  0  0  0  0  0  0  0  0  0  0
  135.5620  129.4700  136.4710 C   0  0  0  0  0  0  0  0  0  0  0  0
  135.1350  129.0210  135.2140 C   0  0  0  0  0  0  0  0  0  0  0  0
  135.5910  129.5540  134.1260 O   0  0  0  0  0  0  0  0  0  0  0  0
  135.8030  130.4240  133.1740 C   0  0  0  0  0  0  0  0  0  0  0  0
  135.3630  129.9300  131.7860 C   0  0  0  0  0  0  0  0  0  0  0  0
  134.0520  129.4190  131.7610 N   0  0  0  0  0  0  0  0  0  0  0  0
  133.1550  130.0030  130.8520 C   0  0  0  0  0  0  0  0  0  0  0  0
  131.9470  130.6990  131.4310 C   0  0  0  0  0  0  0  0  0  0  0  0
  130.9460  130.7110  130.4940 F   0  0  0  0  0  0  0  0  0  0  0  0
  131.4920  129.9760  132.6460 C   0  0  0  0  0  0  0  0  0  0  0  0
  132.0290  130.5570  133.9620 C   0  0  0  0  0  0  0  0  0  0  0  0
  131.8570  131.9690  134.0090 N   0  0  0  0  0  0  0  0  0  0  0  0
  132.0690  132.7730  135.1270 C   0  0  0  0  0  0  0  0  0  0  0  0
  131.8180  134.0460  134.9060 O   0  0  0  0  0  0  0  0  0  0  0  0
  132.5040  132.4860  136.4560 C   0  0  0  0  0  0  0  0  0  0  0  0
  131.5860  131.9120  137.3580 C   0  0  0  0  0  0  0  0  0  0  0  0
  131.9160  131.5810  138.6520 C   0  0  0  0  0  0  0  0  0  0  0  0
  133.1880  131.8110  139.1070 C   0  0  0  0  0  0  0  0  0  0  0  0
  133.5390  131.4920  140.3830 F   0  0  0  0  0  0  0  0  0  0  0  0
  134.1290  132.3700  138.2720 C   0  0  0  0  0  0  0  0  0  0  0  0
  135.7550  132.6620  138.8560 Cl  0  0  0  0  0  0  0  0  0  0  0  0
  133.7580  132.6960  136.9550 C   0  0  0  0  0  0  0  0  0  0  0  0
  131.4230  132.6700  132.7710 C   0  0  0  0  0  0  0  0  0  0  0  0
  132.3790  132.1400  131.7110 C   0  0  0  0  0  0  0  0  0  0  0  0
  134.1920  127.9730  135.1930 C   0  0  0  0  0  0  0  0  0  0  0  0
  133.6450  127.3890  134.0470 O   0  0  0  0  0  0  0  0  0  0  0  0
  1  2  1  0
  2  3  1  0
  2  4  1  0
  4  5  1  0
  5  6  2  0
  6  7  1  0
  7  8  2  0
  8  9  1  0
  9 10  1  0
 10 11  1  0
 11 12  1  0
 12 13  1  0
 13 14  1  0
 14 15  1  0
 15 16  1  0
 15 17  1  0
 17 18  1  0
 18 19  1  0
 19 20  1  0
 20 21  2  0
 20 22  1  0
 22 23  2  0
 23 24  1  0
 24 25  2  0
 25 26  1  0
 25 27  1  0
 27 28  1  0
 27 29  2  0
 19 30  1  0
 30 31  1  0
  9 32  2  0
 32 33  1  0
 33  2  1  0
 32  5  1  0
 31 15  1  0
 29 22  1  0
M  END
$$$$

     RDKit          3D

 29 31  0  0  0  0  0  0  0  0999 V2000
  134.8010  126.5950  133.6490 C   0  0  0  0  0  0  0  0  0  0  0  0
  133.6960  127.5830  133.7260 C   0  0  0  0  0  0  0  0  0  0  0  0
  133.8100  128.7720  134.4090 C   0  0  0  0  0  0  0  0  0  0  0  0
  132.7880  129.6400  134.4560 N   0  0  0  0  0  0  0  0  0  0  0  0
  131.5890  129.4120  133.8440 C   0  0  0  0  0  0  0  0  0  0  0  0
  130.6060  130.3670  133.9560 O   0  0  0  0  0  0  0  0  0  0  0  0
  129.5310  130.3350  134.8400 C   0  0  0  0  0  0  0  0  0  0  0  0
  128.4980  129.3320  134.3080 C   0  0  0  0  0  0  0  0  0  0  0  0
  127.9560  128.6690  135.4080 N   0  0  0  0  0  0  0  0  0  0  0  0
  128.6730  128.1580  136.4620 C   0  0  0  0  0  0  0  0  0  0  0  0
  129.6030  127.0150  136.3650 C   0  0  0  0  0  0  0  0  0  0  0  0
  129.4300  126.3660  135.1310 F   0  0  0  0  0  0  0  0  0  0  0  0
  131.0290  127.2790  136.6510 C   0  0  0  0  0  0  0  0  0  0  0  0
  131.8580  126.0220  136.4650 C   0  0  0  0  0  0  0  0  0  0  0  0
  131.2220  124.7850  136.6950 N   0  0  0  0  0  0  0  0  0  0  0  0
  131.8850  123.5570  136.5330 C   0  0  0  0  0  0  0  0  0  0  0  0
  131.0750  122.5450  136.8350 O   0  0  0  0  0  0  0  0  0  0  0  0
  133.2060  123.2070  136.1250 C   0  0  0  0  0  0  0  0  0  0  0  0
  133.3690  122.7160  134.8130 C   0  0  0  0  0  0  0  0  0  0  0  0
  134.5910  122.3220  134.3150 C   0  0  0  0  0  0  0  0  0  0  0  0
  135.6960  122.4000  135.0960 C   0  0  0  0  0  0  0  0  0  0  0  0
  136.9160  122.0110  134.6150 F   0  0  0  0  0  0  0  0  0  0  0  0
  135.6000  122.8650  136.3690 C   0  0  0  0  0  0  0  0  0  0  0  0
  137.0190  122.9720  137.3910 Cl  0  0  0  0  0  0  0  0  0  0  0  0
  134.3410  123.2620  136.8550 C   0  0  0  0  0  0  0  0  0  0  0  0
  129.8130  124.6810  137.1080 C   0  0  0  0  0  0  0  0  0  0  0  0
  129.1850  125.9690  137.4440 C   0  0  0  0  0  0  0  0  0  0  0  0
  131.4930  128.2500  133.1840 N   0  0  0  0  0  0  0  0  0  0  0  0
  132.4820  127.3420  133.1020 C   0  0  0  0  0  0  0  0  0  0  0  0
  1  2  1  0
  2  3  2  0
  3  4  1  0
  4  5  2  0
  5  6  1  0
  6  7  1  0
  7  8  1  0
  8  9  1  0
  9 10  1  0
 10 11  1  0
 11 12  1  0
 11 13  1  0
 13 14  1  0
 14 15  1  0
 15 16  1  0
 16 17  2  0
 16 18  1  0
 18 19  2  0
 19 20  1  0
 20 21  2  0
 21 22  1  0
 21 23  1  0
 23 24  1  0
 23 25  2  0
 15 26  1  0
 26 27  1  0
  5 28  1  0
 28 29  2  0
 29  2  1  0
 27 11  1  0
 25 18  1  0
M  END
$$$$

     RDKit          3D

 28 30  0  0  0  0  0  0  0  0999 V2000
  135.0890  123.9800  130.4510 O   0  0  0  0  0  0  0  0  0  0  0  0
  133.9940  124.0280  131.1360 C   0  0  0  0  0  0  0  0  0  0  0  0
  133.2740  122.8070  131.2790 C   0  0  0  0  0  0  0  0  0  0  0  0
  132.3210  122.4970  130.2850 C   0  0  0  0  0  0  0  0  0  0  0  0
  131.6630  121.3220  130.3290 C   0  0  0  0  0  0  0  0  0  0  0  0
  131.8970  120.4160  131.3200 C   0  0  0  0  0  0  0  0  0  0  0  0
  131.2340  119.2320  131.3620 F   0  0  0  0  0  0  0  0  0  0  0  0
  132.8150  120.6790  132.3060 C   0  0  0  0  0  0  0  0  0  0  0  0
  133.1280  119.5440  133.5850 Cl  0  0  0  0  0  0  0  0  0  0  0  0
  133.4910  121.9000  132.2520 C   0  0  0  0  0  0  0  0  0  0  0  0
  133.6210  125.2860  131.6780 N   0  0  0  0  0  0  0  0  0  0  0  0
  132.5230  125.5640  132.5400 C   0  0  0  0  0  0  0  0  0  0  0  0
  131.8880  126.9450  132.3730 C   0  0  0  0  0  0  0  0  0  0  0  0
  132.9020  127.9790  132.0110 C   0  0  0  0  0  0  0  0  0  0  0  0
  133.8280  128.0790  133.0190 F   0  0  0  0  0  0  0  0  0  0  0  0
  132.3190  129.3200  131.6490 C   0  0  0  0  0  0  0  0  0  0  0  0
  131.7940  129.2980  130.3520 N   0  0  0  0  0  0  0  0  0  0  0  0
  130.4320  129.2410  130.0940 C   0  0  0  0  0  0  0  0  0  0  0  0
  129.9410  128.5900  128.8500 C   0  0  0  0  0  0  0  0  0  0  0  0
  129.2230  127.4810  128.9550 O   0  0  0  0  0  0  0  0  0  0  0  0
  128.8510  126.5720  129.8790 C   0  0  0  0  0  0  0  0  0  0  0  0
  127.8210  126.7990  130.7550 C   0  0  0  0  0  0  0  0  0  0  0  0
  127.4450  125.8750  131.6930 C   0  0  0  0  0  0  0  0  0  0  0  0
  128.1210  124.6660  131.7660 C   0  0  0  0  0  0  0  0  0  0  0  0
  129.1650  124.4110  130.8910 C   0  0  0  0  0  0  0  0  0  0  0  0
  129.5320  125.3340  129.9640 C   0  0  0  0  0  0  0  0  0  0  0  0
  133.6670  127.5180  130.7490 C   0  0  0  0  0  0  0  0  0  0  0  0
  134.5080  126.3840  131.1950 C   0  0  0  0  0  0  0  0  0  0  0  0
  1  2  2  0
  2  3  1  0
  3  4  2  0
  4  5  1  0
  5  6  2  0
  6  7  1  0
  6  8  1  0
  8  9  1  0
  8 10  2  0
  2 11  1  0
 11 12  1  0
 12 13  1  0
 13 14  1  0
 14 15  1  0
 14 16  1  0
 16 17  1  0
 17 18  1  0
 18 19  1  0
 19 20  1  0
 20 21  1  0
 21 22  2  0
 22 23  1  0
 23 24  2  0
 24 25  1  0
 25 26  2  0
 14 27  1  0
 27 28  1  0
 10  3  1  0
 28 11  1  0
 26 21  1  0
M  END
$$$$

     RDKit          3D

 29 31  0  0  0  0  0  0  0  0999 V2000
  128.3580  125.9500  137.4500 O   0  0  0  0  0  0  0  0  0  0  0  0
  127.5220  126.9380  137.6590 C   0  0  0  0  0  0  0  0  0  0  0  0
  126.1510  126.7080  137.3070 C   0  0  0  0  0  0  0  0  0  0  0  0
  125.5350  127.5660  136.3550 C   0  0  0  0  0  0  0  0  0  0  0  0
  124.2550  127.3830  135.9210 C   0  0  0  0  0  0  0  0  0  0  0  0
  123.5050  126.3310  136.4050 C   0  0  0  0  0  0  0  0  0  0  0  0
  122.2470  126.1460  135.9780 F   0  0  0  0  0  0  0  0  0  0  0  0
  124.0470  125.4750  137.3250 C   0  0  0  0  0  0  0  0  0  0  0  0
  123.1330  124.1510  137.9550 Cl  0  0  0  0  0  0  0  0  0  0  0  0
  125.3620  125.7000  137.7430 C   0  0  0  0  0  0  0  0  0  0  0  0
  128.1000  128.0680  138.1990 N   0  0  0  0  0  0  0  0  0  0  0  0
  129.5950  128.0880  138.4130 C   0  0  0  0  0  0  0  0  0  0  0  0
  129.8870  128.8390  139.6400 C   0  0  0  0  0  0  0  0  0  0  0  0
  128.8480  128.8900  140.7110 C   0  0  0  0  0  0  0  0  0  0  0  0
  129.1630  129.8110  141.6750 F   0  0  0  0  0  0  0  0  0  0  0  0
  128.8000  127.5300  141.3710 C   0  0  0  0  0  0  0  0  0  0  0  0
  127.4520  127.0090  141.4330 N   0  0  0  0  0  0  0  0  0  0  0  0
  127.0700  126.7530  142.8130 C   0  0  0  0  0  0  0  0  0  0  0  0
  125.5490  127.0070  142.8810 C   0  0  0  0  0  0  0  0  0  0  0  0
  125.0300  126.3290  141.7620 O   0  0  0  0  0  0  0  0  0  0  0  0
  123.9720  126.7670  141.0150 C   0  0  0  0  0  0  0  0  0  0  0  0
  122.7730  126.0900  141.0280 C   0  0  0  0  0  0  0  0  0  0  0  0
  121.7470  126.5830  140.2550 C   0  0  0  0  0  0  0  0  0  0  0  0
  121.8580  127.7100  139.4740 C   0  0  0  0  0  0  0  0  0  0  0  0
  120.8020  128.1370  138.7380 F   0  0  0  0  0  0  0  0  0  0  0  0
  123.0700  128.3690  139.4800 C   0  0  0  0  0  0  0  0  0  0  0  0
  124.1120  127.9030  140.2400 C   0  0  0  0  0  0  0  0  0  0  0  0
  127.4580  129.1580  140.1680 C   0  0  0  0  0  0  0  0  0  0  0  0
  127.5200  129.2890  138.6720 C   0  0  0  0  0  0  0  0  0  0  0  0
  1  2  2  0
  2  3  1  0
  3  4  2  0
  4  5  1  0
  5  6  2  0
  6  7  1  0
  6  8  1  0
  8  9  1  0
  8 10  2  0
  2 11  1  0
 11 12  1  0
 12 13  1  0
 13 14  1  0
 14 15  1  0
 14 16  1  0
 16 17  1  0
 17 18  1  0
 18 19  1  0
 19 20  1  0
 20 21  1  0
 21 22  2  0
 22 23  1  0
 23 24  2  0
 24 25  1  0
 24 26  1  0
 26 27  2  0
 14 28  1  0
 28 29  1  0
 10  3  1  0
 29 11  1  0
 27 21  1  0
M  END
$$$$

     RDKit          3D

 27 29  0  0  0  0  0  0  0  0999 V2000
  128.2800  119.8520  140.2910 C   0  0  0  0  0  0  0  0  0  0  0  0
  127.6160  121.0690  140.8300 C   0  0  0  0  0  0  0  0  0  0  0  0
  128.3160  122.1960  141.2180 C   0  0  0  0  0  0  0  0  0  0  0  0
  127.6710  123.3120  141.7150 C   0  0  0  0  0  0  0  0  0  0  0  0
  126.2980  123.3210  141.8360 C   0  0  0  0  0  0  0  0  0  0  0  0
  125.6770  124.5550  142.3790 C   0  0  0  0  0  0  0  0  0  0  0  0
  126.4410  125.6820  141.9370 N   0  0  0  0  0  0  0  0  0  0  0  0
  125.7200  126.5760  141.0840 C   0  0  0  0  0  0  0  0  0  0  0  0
  126.6340  126.8860  139.8890 C   0  0  0  0  0  0  0  0  0  0  0  0
  126.3760  128.2320  139.5880 F   0  0  0  0  0  0  0  0  0  0  0  0
  128.0690  126.7980  140.2800 C   0  0  0  0  0  0  0  0  0  0  0  0
  128.8760  126.6250  138.9920 C   0  0  0  0  0  0  0  0  0  0  0  0
  128.5560  125.2140  138.5740 N   0  0  0  0  0  0  0  0  0  0  0  0
  129.6610  124.4160  138.3160 C   0  0  0  0  0  0  0  0  0  0  0  0
  130.8510  124.9780  138.4610 O   0  0  0  0  0  0  0  0  0  0  0  0
  129.7720  123.0300  137.9000 C   0  0  0  0  0  0  0  0  0  0  0  0
  128.8180  122.4920  137.0120 C   0  0  0  0  0  0  0  0  0  0  0  0
  128.8300  121.1960  136.5610 C   0  0  0  0  0  0  0  0  0  0  0  0
  129.8360  120.3750  137.0020 C   0  0  0  0  0  0  0  0  0  0  0  0
  129.8580  119.1050  136.5670 F   0  0  0  0  0  0  0  0  0  0  0  0
  130.7940  120.8430  137.8670 C   0  0  0  0  0  0  0  0  0  0  0  0
  132.0640  119.7700  138.4110 Cl  0  0  0  0  0  0  0  0  0  0  0  0
  130.7590  122.1690  138.3130 C   0  0  0  0  0  0  0  0  0  0  0  0
  127.2010  124.8560  138.4880 C   0  0  0  0  0  0  0  0  0  0  0  0
  126.2420  126.0420  138.7390 C   0  0  0  0  0  0  0  0  0  0  0  0
  125.6200  122.2380  141.4650 N   0  0  0  0  0  0  0  0  0  0  0  0
  126.2350  121.1460  140.9790 C   0  0  0  0  0  0  0  0  0  0  0  0
  1  2  1  0
  2  3  2  0
  3  4  1  0
  4  5  2  0
  5  6  1  0
  6  7  1  0
  7  8  1  0
  8  9  1  0
  9 10  1  0
  9 11  1  0
 11 12  1  0
 12 13  1  0
 13 14  1  0
 14 15  2  0
 14 16  1  0
 16 17  2  0
 17 18  1  0
 18 19  2  0
 19 20  1  0
 19 21  1  0
 21 22  1  0
 21 23  2  0
 13 24  1  0
 24 25  1  0
  5 26  1  0
 26 27  2  0
 27  2  1  0
 25  9  1  0
 23 16  1  0
M  END
$$$$

     RDKit          3D

 30 32  0  0  0  0  0  0  0  0999 V2000
  128.2470  133.4270  134.0700 C   0  0  0  0  0  0  0  0  0  0  0  0
  127.1090  132.7730  134.5290 O   0  0  0  0  0  0  0  0  0  0  0  0
  126.8420  131.4530  134.2020 C   0  0  0  0  0  0  0  0  0  0  0  0
  127.6350  130.8160  133.2570 C   0  0  0  0  0  0  0  0  0  0  0  0
  127.4360  129.5300  132.8850 C   0  0  0  0  0  0  0  0  0  0  0  0
  126.3920  128.7620  133.4530 C   0  0  0  0  0  0  0  0  0  0  0  0
  126.2570  127.4900  133.0360 O   0  0  0  0  0  0  0  0  0  0  0  0
  126.6230  126.3020  133.5850 C   0  0  0  0  0  0  0  0  0  0  0  0
  128.0400  126.1540  134.0660 C   0  0  0  0  0  0  0  0  0  0  0  0
  128.1670  125.6800  135.3820 N   0  0  0  0  0  0  0  0  0  0  0  0
  128.8060  126.4020  136.3830 C   0  0  0  0  0  0  0  0  0  0  0  0
  128.2410  127.6830  136.8700 C   0  0  0  0  0  0  0  0  0  0  0  0
  126.8590  127.7020  136.7600 F   0  0  0  0  0  0  0  0  0  0  0  0
  128.8110  128.9270  136.2900 C   0  0  0  0  0  0  0  0  0  0  0  0
  128.8350  130.0560  137.2890 C   0  0  0  0  0  0  0  0  0  0  0  0
  127.7640  129.9720  138.2850 N   0  0  0  0  0  0  0  0  0  0  0  0
  127.0100  131.1240  138.4870 C   0  0  0  0  0  0  0  0  0  0  0  0
  127.3720  132.1410  137.7340 O   0  0  0  0  0  0  0  0  0  0  0  0
  125.9140  131.4300  139.3570 C   0  0  0  0  0  0  0  0  0  0  0  0
  124.5930  131.2840  139.0520 C   0  0  0  0  0  0  0  0  0  0  0  0
  123.5450  131.5920  139.9390 C   0  0  0  0  0  0  0  0  0  0  0  0
  123.8210  132.0640  141.1850 C   0  0  0  0  0  0  0  0  0  0  0  0
  122.5990  132.4760  142.3610 Cl  0  0  0  0  0  0  0  0  0  0  0  0
  125.1500  132.2210  141.5190 C   0  0  0  0  0  0  0  0  0  0  0  0
  125.5400  132.8330  143.1310 Cl  0  0  0  0  0  0  0  0  0  0  0  0
  126.1680  131.9200  140.6500 C   0  0  0  0  0  0  0  0  0  0  0  0
  127.5540  128.7270  138.9770 C   0  0  0  0  0  0  0  0  0  0  0  0
  128.5700  127.7450  138.3760 C   0  0  0  0  0  0  0  0  0  0  0  0
  125.5980  129.3640  134.3830 C   0  0  0  0  0  0  0  0  0  0  0  0
  125.8360  130.6940  134.7400 C   0  0  0  0  0  0  0  0  0  0  0  0
  1  2  1  0
  2  3  1  0
  3  4  2  0
  4  5  1  0
  5  6  2  0
  6  7  1  0
  7  8  1  0
  8  9  1  0
  9 10  1  0
 10 11  1  0
 11 12  1  0
 12 13  1  0
 12 14  1  0
 14 15  1  0
 15 16  1  0
 16 17  1  0
 17 18  2  0
 17 19  1  0
 19 20  2  0
 20 21  1  0
 21 22  2  0
 22 23  1  0
 22 24  1  0
 24 25  1  0
 24 26  2  0
 16 27  1  0
 27 28  1  0
  6 29  1  0
 29 30  2  0
 30  3  1  0
 28 12  1  0
 26 19  1  0
M  END
$$$$

     RDKit          3D

 29 31  0  0  0  0  0  0  0  0999 V2000
  130.4330  125.2710  132.4950 O   0  0  0  0  0  0  0  0  0  0  0  0
  130.8670  125.9550  133.5330 C   0  0  0  0  0  0  0  0  0  0  0  0
  132.2520  125.8300  133.8340 C   0  0  0  0  0  0  0  0  0  0  0  0
  132.7870  124.8470  134.6160 C   0  0  0  0  0  0  0  0  0  0  0  0
  134.1560  124.7920  134.9170 C   0  0  0  0  0  0  0  0  0  0  0  0
  135.0020  125.7400  134.4250 C   0  0  0  0  0  0  0  0  0  0  0  0
  136.3390  125.7420  134.6820 F   0  0  0  0  0  0  0  0  0  0  0  0
  134.4560  126.7260  133.6400 C   0  0  0  0  0  0  0  0  0  0  0  0
  135.5420  127.9650  132.9950 Cl  0  0  0  0  0  0  0  0  0  0  0  0
  133.1370  126.8070  133.3300 C   0  0  0  0  0  0  0  0  0  0  0  0
  129.8840  126.7060  134.1880 N   0  0  0  0  0  0  0  0  0  0  0  0
  128.4920  126.6920  133.6250 C   0  0  0  0  0  0  0  0  0  0  0  0
  127.5790  126.4600  134.7910 C   0  0  0  0  0  0  0  0  0  0  0  0
  127.4580  127.7430  135.5910 C   0  0  0  0  0  0  0  0  0  0  0  0
  127.2300  127.3660  136.9090 F   0  0  0  0  0  0  0  0  0  0  0  0
  126.4030  128.6460  135.0430 C   0  0  0  0  0  0  0  0  0  0  0  0
  126.8520  129.8230  134.3870 N   0  0  0  0  0  0  0  0  0  0  0  0
  126.1620  130.1970  133.1930 C   0  0  0  0  0  0  0  0  0  0  0  0
  126.9100  129.5960  132.0040 C   0  0  0  0  0  0  0  0  0  0  0  0
  127.7260  130.5510  131.3550 O   0  0  0  0  0  0  0  0  0  0  0  0
  129.0730  130.2550  131.2150 C   0  0  0  0  0  0  0  0  0  0  0  0
  129.8780  129.9360  132.2930 C   0  0  0  0  0  0  0  0  0  0  0  0
  131.2160  129.6420  132.1520 C   0  0  0  0  0  0  0  0  0  0  0  0
  131.7860  129.6620  130.8910 C   0  0  0  0  0  0  0  0  0  0  0  0
  131.0120  129.9770  129.7780 C   0  0  0  0  0  0  0  0  0  0  0  0
  131.6090  129.9840  128.5660 F   0  0  0  0  0  0  0  0  0  0  0  0
  129.6750  130.2660  129.9680 C   0  0  0  0  0  0  0  0  0  0  0  0
  128.7750  128.4660  135.4550 C   0  0  0  0  0  0  0  0  0  0  0  0
  129.9760  127.4890  135.3850 C   0  0  0  0  0  0  0  0  0  0  0  0
  1  2  2  0
  2  3  1  0
  3  4  2  0
  4  5  1  0
  5  6  2  0
  6  7  1  0
  6  8  1  0
  8  9  1  0
  8 10  2  0
  2 11  1  0
 11 12  1  0
 12 13  1  0
 13 14  1  0
 14 15  1  0
 14 16  1  0
 16 17  1  0
 17 18  1  0
 18 19  1  0
 19 20  1  0
 20 21  1  0
 21 22  2  0
 22 23  1  0
 23 24  2  0
 24 25  1  0
 25 26  1  0
 25 27  2  0
 14 28  1  0
 28 29  1  0
 10  3  1  0
 29 11  1  0
 27 21  1  0
M  END
$$$$

     RDKit          3D

 28 30  0  0  0  0  0  0  0  0999 V2000
  126.6890  131.3980  141.9350 O   0  0  0  0  0  0  0  0  0  0  0  0
  127.4730  130.3800  141.6320 C   0  0  0  0  0  0  0  0  0  0  0  0
  128.6650  130.7690  140.9510 C   0  0  0  0  0  0  0  0  0  0  0  0
  129.8010  131.1830  141.5930 C   0  0  0  0  0  0  0  0  0  0  0  0
  130.9580  131.5440  140.8770 C   0  0  0  0  0  0  0  0  0  0  0  0
  130.9510  131.4830  139.5150 C   0  0  0  0  0  0  0  0  0  0  0  0
  132.0740  131.8350  138.8430 F   0  0  0  0  0  0  0  0  0  0  0  0
  129.8280  131.0720  138.8300 C   0  0  0  0  0  0  0  0  0  0  0  0
  129.8330  130.9970  137.0630 Cl  0  0  0  0  0  0  0  0  0  0  0  0
  128.7280  130.7300  139.5450 C   0  0  0  0  0  0  0  0  0  0  0  0
  126.9870  129.1620  142.0290 N   0  0  0  0  0  0  0  0  0  0  0  0
  125.6570  129.1590  142.7230 C   0  0  0  0  0  0  0  0  0  0  0  0
  124.8310  128.1830  141.8820 C   0  0  0  0  0  0  0  0  0  0  0  0
  125.3070  126.8030  142.3400 C   0  0  0  0  0  0  0  0  0  0  0  0
  124.6330  126.6100  143.5560 F   0  0  0  0  0  0  0  0  0  0  0  0
  124.8010  125.7590  141.3870 C   0  0  0  0  0  0  0  0  0  0  0  0
  124.2720  126.2290  140.1570 N   0  0  0  0  0  0  0  0  0  0  0  0
  124.6470  125.5500  138.9740 C   0  0  0  0  0  0  0  0  0  0  0  0
  126.0990  125.6220  138.6040 C   0  0  0  0  0  0  0  0  0  0  0  0
  126.6990  126.8480  138.6450 O   0  0  0  0  0  0  0  0  0  0  0  0
  126.4430  128.0470  138.0770 C   0  0  0  0  0  0  0  0  0  0  0  0
  126.9280  128.4510  136.8970 N   0  0  0  0  0  0  0  0  0  0  0  0
  126.6050  129.6650  136.4340 C   0  0  0  0  0  0  0  0  0  0  0  0
  125.7820  130.5220  137.1320 C   0  0  0  0  0  0  0  0  0  0  0  0
  125.2830  130.0980  138.3530 C   0  0  0  0  0  0  0  0  0  0  0  0
  125.6220  128.8880  138.7850 N   0  0  0  0  0  0  0  0  0  0  0  0
  126.7550  126.7830  142.6290 C   0  0  0  0  0  0  0  0  0  0  0  0
  127.5660  127.8850  141.8940 C   0  0  0  0  0  0  0  0  0  0  0  0
  1  2  2  0
  2  3  1  0
  3  4  2  0
  4  5  1  0
  5  6  2  0
  6  7  1  0
  6  8  1  0
  8  9  1  0
  8 10  2  0
  2 11  1  0
 11 12  1  0
 12 13  1  0
 13 14  1  0
 14 15  1  0
 14 16  1  0
 16 17  1  0
 17 18  1  0
 18 19  1  0
 19 20  1  0
 20 21  1  0
 21 22  2  0
 22 23  1  0
 23 24  2  0
 24 25  1  0
 25 26  2  0
 14 27  1  0
 27 28  1  0
 10  3  1  0
 28 11  1  0
 26 21  1  0
M  END
$$$$

     RDKit          3D

 32 34  0  0  0  0  0  0  0  0999 V2000
  129.8930  126.9700  135.6050 C   0  0  0  0  0  0  0  0  0  0  0  0
  129.3310  127.0990  134.2110 C   0  0  0  0  0  0  0  0  0  0  0  0
  130.1170  127.1020  133.2470 O   0  0  0  0  0  0  0  0  0  0  0  0
  127.9500  127.2150  133.9810 N   0  0  0  0  0  0  0  0  0  0  0  0
  127.2900  127.3380  132.7420 C   0  0  0  0  0  0  0  0  0  0  0  0
  127.2300  126.3970  131.7520 C   0  0  0  0  0  0  0  0  0  0  0  0
  126.5540  126.6260  130.5550 C   0  0  0  0  0  0  0  0  0  0  0  0
  125.9130  127.8030  130.3080 C   0  0  0  0  0  0  0  0  0  0  0  0
  125.9510  128.7960  131.3040 C   0  0  0  0  0  0  0  0  0  0  0  0
  125.2870  129.9660  131.0170 O   0  0  0  0  0  0  0  0  0  0  0  0
  125.5640  131.1780  131.5860 C   0  0  0  0  0  0  0  0  0  0  0  0
  124.2780  131.7470  132.2130 C   0  0  0  0  0  0  0  0  0  0  0  0
  124.4590  132.0030  133.5800 N   0  0  0  0  0  0  0  0  0  0  0  0
  124.9640  131.0600  134.4720 C   0  0  0  0  0  0  0  0  0  0  0  0
  124.1450  130.7820  135.6610 C   0  0  0  0  0  0  0  0  0  0  0  0
  123.5890  131.9920  136.1420 F   0  0  0  0  0  0  0  0  0  0  0  0
  122.8980  130.0080  135.1720 C   0  0  0  0  0  0  0  0  0  0  0  0
  123.4480  128.8010  134.4000 C   0  0  0  0  0  0  0  0  0  0  0  0
  124.4050  128.0930  135.1680 N   0  0  0  0  0  0  0  0  0  0  0  0
  124.5480  126.6620  135.0540 C   0  0  0  0  0  0  0  0  0  0  0  0
  125.5300  126.1630  135.7650 O   0  0  0  0  0  0  0  0  0  0  0  0
  123.7520  125.7980  134.2720 C   0  0  0  0  0  0  0  0  0  0  0  0
  123.8770  125.5160  132.9550 C   0  0  0  0  0  0  0  0  0  0  0  0
  122.9530  124.6840  132.2850 C   0  0  0  0  0  0  0  0  0  0  0  0
  121.8850  124.1290  132.9470 C   0  0  0  0  0  0  0  0  0  0  0  0
  121.0280  123.3370  132.2530 F   0  0  0  0  0  0  0  0  0  0  0  0
  121.7390  124.4070  134.2810 C   0  0  0  0  0  0  0  0  0  0  0  0
  120.3770  123.7090  135.1460 Cl  0  0  0  0  0  0  0  0  0  0  0  0
  122.6420  125.2120  134.9140 C   0  0  0  0  0  0  0  0  0  0  0  0
  125.2960  128.7270  136.1670 C   0  0  0  0  0  0  0  0  0  0  0  0
  124.6560  129.9730  136.7910 C   0  0  0  0  0  0  0  0  0  0  0  0
  126.6280  128.5390  132.4710 C   0  0  0  0  0  0  0  0  0  0  0  0
  1  2  1  0
  2  3  2  0
  2  4  1  0
  4  5  1  0
  5  6  2  0
  6  7  1  0
  7  8  2  0
  8  9  1  0
  9 10  1  0
 10 11  1  0
 11 12  1  0
 12 13  1  0
 13 14  1  0
 14 15  1  0
 15 16  1  0
 15 17  1  0
 17 18  1  0
 18 19  1  0
 19 20  1  0
 20 21  2  0
 20 22  1  0
 22 23  2  0
 23 24  1  0
 24 25  2  0
 25 26  1  0
 25 27  1  0
 27 28  1  0
 27 29  2  0
 19 30  1  0
 30 31  1  0
  9 32  2  0
 32  5  1  0
 31 15  1  0
 29 22  1  0
M  END
$$$$

     RDKit          3D

 30 32  0  0  0  0  0  0  0  0999 V2000
  125.2930  123.6740  137.4130 C   0  0  0  0  0  0  0  0  0  0  0  0
  125.8160  123.9680  138.7130 N   0  0  0  0  0  0  0  0  0  0  0  0
  127.1510  124.3790  138.9050 C   0  0  0  0  0  0  0  0  0  0  0  0
  128.1620  123.7430  138.2360 C   0  0  0  0  0  0  0  0  0  0  0  0
  129.4850  124.0990  138.3720 C   0  0  0  0  0  0  0  0  0  0  0  0
  129.7710  125.1480  139.2280 C   0  0  0  0  0  0  0  0  0  0  0  0
  128.7590  125.7940  139.9050 C   0  0  0  0  0  0  0  0  0  0  0  0
  127.4220  125.4440  139.7760 C   0  0  0  0  0  0  0  0  0  0  0  0
  126.4100  126.0390  140.4140 O   0  0  0  0  0  0  0  0  0  0  0  0
  125.6370  127.1440  140.1580 C   0  0  0  0  0  0  0  0  0  0  0  0
  126.2840  128.4830  140.3970 C   0  0  0  0  0  0  0  0  0  0  0  0
  126.1870  129.2840  139.2230 N   0  0  0  0  0  0  0  0  0  0  0  0
  125.9000  128.6920  137.9890 C   0  0  0  0  0  0  0  0  0  0  0  0
  127.0340  128.5880  137.0020 C   0  0  0  0  0  0  0  0  0  0  0  0
  126.7290  129.3740  135.9140 F   0  0  0  0  0  0  0  0  0  0  0  0
  128.3390  129.1360  137.5500 C   0  0  0  0  0  0  0  0  0  0  0  0
  129.3730  129.1130  136.4740 C   0  0  0  0  0  0  0  0  0  0  0  0
  129.7240  127.6890  136.2600 N   0  0  0  0  0  0  0  0  0  0  0  0
  131.0930  127.3870  136.2390 C   0  0  0  0  0  0  0  0  0  0  0  0
  131.8470  128.4600  136.3400 O   0  0  0  0  0  0  0  0  0  0  0  0
  131.7790  126.1340  136.1270 C   0  0  0  0  0  0  0  0  0  0  0  0
  131.5180  125.3410  135.0100 C   0  0  0  0  0  0  0  0  0  0  0  0
  132.0830  124.0980  134.8300 C   0  0  0  0  0  0  0  0  0  0  0  0
  132.9440  123.5940  135.7780 C   0  0  0  0  0  0  0  0  0  0  0  0
  133.5160  122.3590  135.6210 F   0  0  0  0  0  0  0  0  0  0  0  0
  133.2080  124.3710  136.8830 C   0  0  0  0  0  0  0  0  0  0  0  0
  134.3020  123.7630  138.1040 Cl  0  0  0  0  0  0  0  0  0  0  0  0
  132.6330  125.6370  137.0660 C   0  0  0  0  0  0  0  0  0  0  0  0
  128.6180  126.8070  136.0530 C   0  0  0  0  0  0  0  0  0  0  0  0
  127.2760  127.1990  136.5430 C   0  0  0  0  0  0  0  0  0  0  0  0
  1  2  1  0
  2  3  1  0
  3  4  2  0
  4  5  1  0
  5  6  2  0
  6  7  1  0
  7  8  2  0
  8  9  1  0
  9 10  1  0
 10 11  1  0
 11 12  1  0
 12 13  1  0
 13 14  1  0
 14 15  1  0
 14 16  1  0
 16 17  1  0
 17 18  1  0
 18 19  1  0
 19 20  2  0
 19 21  1  0
 21 22  2  0
 22 23  1  0
 23 24  2  0
 24 25  1  0
 24 26  1  0
 26 27  1  0
 26 28  2  0
 18 29  1  0
 29 30  1  0
  8  3  1  0
 30 14  1  0
 28 21  1  0
M  END
$$$$

     RDKit          3D

 30 32  0  0  0  0  0  0  0  0999 V2000
  133.2350  118.9040  136.4570 C   0  0  0  0  0  0  0  0  0  0  0  0
  133.8080  119.0650  135.1970 O   0  0  0  0  0  0  0  0  0  0  0  0
  133.1970  119.5330  134.0570 C   0  0  0  0  0  0  0  0  0  0  0  0
  133.5690  120.8030  133.6280 C   0  0  0  0  0  0  0  0  0  0  0  0
  133.0200  121.3790  132.4900 C   0  0  0  0  0  0  0  0  0  0  0  0
  132.0930  120.6490  131.7980 C   0  0  0  0  0  0  0  0  0  0  0  0
  131.6890  119.3760  132.1880 C   0  0  0  0  0  0  0  0  0  0  0  0
  130.7740  118.7230  131.4590 O   0  0  0  0  0  0  0  0  0  0  0  0
  129.4020  118.8660  131.3340 C   0  0  0  0  0  0  0  0  0  0  0  0
  128.7370  118.6800  132.6940 C   0  0  0  0  0  0  0  0  0  0  0  0
  127.9950  119.7910  133.1150 N   0  0  0  0  0  0  0  0  0  0  0  0
  128.5730  121.0630  133.2160 C   0  0  0  0  0  0  0  0  0  0  0  0
  127.7920  122.2620  132.8650 C   0  0  0  0  0  0  0  0  0  0  0  0
  126.4630  122.0170  133.2530 F   0  0  0  0  0  0  0  0  0  0  0  0
  127.7250  122.4930  131.3480 C   0  0  0  0  0  0  0  0  0  0  0  0
  129.1510  122.5000  130.9080 C   0  0  0  0  0  0  0  0  0  0  0  0
  129.8820  123.5760  131.6010 N   0  0  0  0  0  0  0  0  0  0  0  0
  130.9060  124.1760  130.8240 C   0  0  0  0  0  0  0  0  0  0  0  0
  131.0640  123.6120  129.6650 O   0  0  0  0  0  0  0  0  0  0  0  0
  131.7640  125.2810  131.1300 C   0  0  0  0  0  0  0  0  0  0  0  0
  131.5050  126.5870  130.8790 C   0  0  0  0  0  0  0  0  0  0  0  0
  132.4460  127.5890  131.1750 C   0  0  0  0  0  0  0  0  0  0  0  0
  133.6650  127.2950  131.7290 C   0  0  0  0  0  0  0  0  0  0  0  0
  134.5980  128.2230  132.0280 F   0  0  0  0  0  0  0  0  0  0  0  0
  133.9160  125.9660  131.9790 C   0  0  0  0  0  0  0  0  0  0  0  0
  135.4680  125.5540  132.6870 Cl  0  0  0  0  0  0  0  0  0  0  0  0
  133.0050  125.0040  131.6920 C   0  0  0  0  0  0  0  0  0  0  0  0
  129.5870  123.9250  132.9450 C   0  0  0  0  0  0  0  0  0  0  0  0
  128.1650  123.5730  133.4250 C   0  0  0  0  0  0  0  0  0  0  0  0
  132.2570  118.8480  133.3160 C   0  0  0  0  0  0  0  0  0  0  0  0
  1  2  1  0
  2  3  1  0
  3  4  2  0
  4  5  1  0
  5  6  2  0
  6  7  1  0
  7  8  1  0
  8  9  1  0
  9 10  1  0
 10 11  1  0
 11 12  1  0
 12 13  1  0
 13 14  1  0
 13 15  1  0
 15 16  1  0
 16 17  1  0
 17 18  1  0
 18 19  2  0
 18 20  1  0
 20 21  2  0
 21 22  1  0
 22 23  2  0
 23 24  1  0
 23 25  1  0
 25 26  1  0
 25 27  2  0
 17 28  1  0
 28 29  1  0
  7 30  2  0
 30  3  1  0
 29 13  1  0
 27 20  1  0
M  END
$$$$

     RDKit          3D

 27 29  0  0  0  0  0  0  0  0999 V2000
  133.1930  121.0540  138.4140 C   0  0  0  0  0  0  0  0  0  0  0  0
  134.2410  121.0090  137.3570 C   0  0  0  0  0  0  0  0  0  0  0  0
  134.2070  121.9070  136.3010 C   0  0  0  0  0  0  0  0  0  0  0  0
  135.1620  121.8590  135.3470 N   0  0  0  0  0  0  0  0  0  0  0  0
  136.1670  120.9650  135.3720 C   0  0  0  0  0  0  0  0  0  0  0  0
  137.1550  121.0270  134.2560 C   0  0  0  0  0  0  0  0  0  0  0  0
  137.5040  122.4060  134.0930 N   0  0  0  0  0  0  0  0  0  0  0  0
  137.4090  122.8050  132.7180 C   0  0  0  0  0  0  0  0  0  0  0  0
  136.5910  124.0360  132.4590 C   0  0  0  0  0  0  0  0  0  0  0  0
  137.1410  124.9060  131.5600 F   0  0  0  0  0  0  0  0  0  0  0  0
  135.2470  123.5960  131.8900 C   0  0  0  0  0  0  0  0  0  0  0  0
  134.4420  124.8510  131.5320 C   0  0  0  0  0  0  0  0  0  0  0  0
  134.2140  125.5180  132.8490 N   0  0  0  0  0  0  0  0  0  0  0  0
  132.8830  125.6060  133.2650 C   0  0  0  0  0  0  0  0  0  0  0  0
  132.0120  125.1210  132.4310 O   0  0  0  0  0  0  0  0  0  0  0  0
  132.3550  126.1530  134.4690 C   0  0  0  0  0  0  0  0  0  0  0  0
  131.6410  127.3140  134.5240 C   0  0  0  0  0  0  0  0  0  0  0  0
  131.1870  127.7830  135.7730 C   0  0  0  0  0  0  0  0  0  0  0  0
  131.4440  127.1050  136.9190 C   0  0  0  0  0  0  0  0  0  0  0  0
  131.0050  127.5590  138.1370 F   0  0  0  0  0  0  0  0  0  0  0  0
  132.1620  125.9400  136.8640 C   0  0  0  0  0  0  0  0  0  0  0  0
  132.5110  125.0380  138.3320 Cl  0  0  0  0  0  0  0  0  0  0  0  0
  132.6110  125.4670  135.6680 C   0  0  0  0  0  0  0  0  0  0  0  0
  135.4020  125.9930  133.4700 C   0  0  0  0  0  0  0  0  0  0  0  0
  136.3760  124.8230  133.7370 C   0  0  0  0  0  0  0  0  0  0  0  0
  136.2180  120.0930  136.3760 N   0  0  0  0  0  0  0  0  0  0  0  0
  135.2830  120.1020  137.3560 C   0  0  0  0  0  0  0  0  0  0  0  0
  1  2  1  0
  2  3  2  0
  3  4  1  0
  4  5  2  0
  5  6  1  0
  6  7  1  0
  7  8  1  0
  8  9  1  0
  9 10  1  0
  9 11  1  0
 11 12  1  0
 12 13  1  0
 13 14  1  0
 14 15  2  0
 14 16  1  0
 16 17  2  0
 17 18  1  0
 18 19  2  0
 19 20  1  0
 19 21  1  0
 21 22  1  0
 21 23  2  0
 13 24  1  0
 24 25  1  0
  5 26  1  0
 26 27  2  0
 27  2  1  0
 25  9  1  0
 23 16  1  0
M  ISO  1  20  18
M  END
$$$$

     RDKit          3D

 32 35  0  0  0  0  0  0  0  0999 V2000
  133.5700  126.7620  136.5960 O   0  0  0  0  0  0  0  0  0  0  0  0
  132.2520  126.8260  136.4910 C   0  0  0  0  0  0  0  0  0  0  0  0
  131.7300  126.8430  135.1450 C   0  0  0  0  0  0  0  0  0  0  0  0
  131.3910  127.9540  134.4350 C   0  0  0  0  0  0  0  0  0  0  0  0
  130.9340  127.8640  133.1060 C   0  0  0  0  0  0  0  0  0  0  0  0
  130.8300  126.6340  132.5160 C   0  0  0  0  0  0  0  0  0  0  0  0
  130.3940  126.5070  131.2400 F   0  0  0  0  0  0  0  0  0  0  0  0
  131.1620  125.4800  133.1880 C   0  0  0  0  0  0  0  0  0  0  0  0
  131.0240  123.8870  132.4270 Cl  0  0  0  0  0  0  0  0  0  0  0  0
  131.6020  125.6060  134.4780 C   0  0  0  0  0  0  0  0  0  0  0  0
  131.5870  126.8610  137.6950 N   0  0  0  0  0  0  0  0  0  0  0  0
  130.1960  126.8730  137.9520 C   0  0  0  0  0  0  0  0  0  0  0  0
  129.8440  128.3250  138.3260 C   0  0  0  0  0  0  0  0  0  0  0  0
  130.7530  128.7170  139.4710 C   0  0  0  0  0  0  0  0  0  0  0  0
  131.6870  129.5910  138.9700 F   0  0  0  0  0  0  0  0  0  0  0  0
  129.8590  129.3480  140.5090 C   0  0  0  0  0  0  0  0  0  0  0  0
  130.0580  130.7290  140.7050 N   0  0  0  0  0  0  0  0  0  0  0  0
  129.0250  131.5640  141.1010 C   0  0  0  0  0  0  0  0  0  0  0  0
  127.9760  132.0060  140.1410 C   0  0  0  0  0  0  0  0  0  0  0  0
  128.2900  132.2580  138.8650 O   0  0  0  0  0  0  0  0  0  0  0  0
  128.6540  131.8120  137.6830 C   0  0  0  0  0  0  0  0  0  0  0  0
  127.7430  131.2330  136.8080 C   0  0  0  0  0  0  0  0  0  0  0  0
  128.2150  130.7940  135.5870 C   0  0  0  0  0  0  0  0  0  0  0  0
  129.5320  130.9110  135.2260 C   0  0  0  0  0  0  0  0  0  0  0  0
  130.4290  131.4850  136.1030 C   0  0  0  0  0  0  0  0  0  0  0  0
  130.0120  131.9300  137.3060 C   0  0  0  0  0  0  0  0  0  0  0  0
  130.9060  132.5190  138.2170 O   0  0  0  0  0  0  0  0  0  0  0  0
  132.1240  133.0230  137.7030 C   0  0  0  0  0  0  0  0  0  0  0  0
  132.7420  131.9510  136.7910 C   0  0  0  0  0  0  0  0  0  0  0  0
  131.7920  131.6290  135.7790 O   0  0  0  0  0  0  0  0  0  0  0  0
  131.4950  127.5240  139.9890 C   0  0  0  0  0  0  0  0  0  0  0  0
  132.4090  126.9330  138.9400 C   0  0  0  0  0  0  0  0  0  0  0  0
  1  2  2  0
  2  3  1  0
  3  4  2  0
  4  5  1  0
  5  6  2  0
  6  7  1  0
  6  8  1  0
  8  9  1  0
  8 10  2  0
  2 11  1  0
 11 12  1  0
 12 13  1  0
 13 14  1  0
 14 15  1  0
 14 16  1  0
 16 17  1  0
 17 18  1  0
 18 19  1  0
 19 20  1  0
 20 21  1  0
 21 22  2  0
 22 23  1  0
 23 24  2  0
 24 25  1  0
 25 26  2  0
 26 27  1  0
 27 28  1  0
 28 29  1  0
 29 30  1  0
 14 31  1  0
 31 32  1  0
 10  3  1  0
 32 11  1  0
 26 21  1  0
 30 25  1  0
M  END
$$$$

     RDKit          3D

 28 30  0  0  0  0  0  0  0  0999 V2000
  124.7890  126.6230  135.1340 O   0  0  0  0  0  0  0  0  0  0  0  0
  124.3640  127.8400  135.3990 C   0  0  0  0  0  0  0  0  0  0  0  0
  124.9990  128.8720  134.6150 C   0  0  0  0  0  0  0  0  0  0  0  0
  124.4590  129.5320  133.5490 C   0  0  0  0  0  0  0  0  0  0  0  0
  125.1550  130.5190  132.8460 C   0  0  0  0  0  0  0  0  0  0  0  0
  126.4260  130.8540  133.2210 C   0  0  0  0  0  0  0  0  0  0  0  0
  127.1420  131.8190  132.5550 F   0  0  0  0  0  0  0  0  0  0  0  0
  126.9990  130.2100  134.2880 C   0  0  0  0  0  0  0  0  0  0  0  0
  128.6270  130.5840  134.8280 Cl  0  0  0  0  0  0  0  0  0  0  0  0
  126.2980  129.2440  134.9630 C   0  0  0  0  0  0  0  0  0  0  0  0
  123.3910  127.9670  136.3660 N   0  0  0  0  0  0  0  0  0  0  0  0
  122.7590  129.1300  136.8520 C   0  0  0  0  0  0  0  0  0  0  0  0
  121.7380  128.7390  137.9510 C   0  0  0  0  0  0  0  0  0  0  0  0
  122.4500  127.9750  139.0370 C   0  0  0  0  0  0  0  0  0  0  0  0
  121.4640  127.5000  139.8900 F   0  0  0  0  0  0  0  0  0  0  0  0
  123.4200  128.8780  139.7850 C   0  0  0  0  0  0  0  0  0  0  0  0
  122.7270  129.9330  140.4880 N   0  0  0  0  0  0  0  0  0  0  0  0
  123.6340  130.7570  141.2620 C   0  0  0  0  0  0  0  0  0  0  0  0
  123.6130  132.1490  140.7310 C   0  0  0  0  0  0  0  0  0  0  0  0
  124.3170  132.3320  139.5680 O   0  0  0  0  0  0  0  0  0  0  0  0
  123.9860  132.4640  138.2590 C   0  0  0  0  0  0  0  0  0  0  0  0
  124.9890  132.2800  137.2890 C   0  0  0  0  0  0  0  0  0  0  0  0
  124.7170  132.3990  136.0140 N   0  0  0  0  0  0  0  0  0  0  0  0
  123.4960  132.6960  135.5850 C   0  0  0  0  0  0  0  0  0  0  0  0
  122.4990  132.8830  136.4720 N   0  0  0  0  0  0  0  0  0  0  0  0
  122.7290  132.7720  137.7910 C   0  0  0  0  0  0  0  0  0  0  0  0
  123.2790  126.8390  138.4810 C   0  0  0  0  0  0  0  0  0  0  0  0
  122.9270  126.7050  137.0020 C   0  0  0  0  0  0  0  0  0  0  0  0
  1  2  2  0
  2  3  1  0
  3  4  2  0
  4  5  1  0
  5  6  2  0
  6  7  1  0
  6  8  1  0
  8  9  1  0
  8 10  2  0
  2 11  1  0
 11 12  1  0
 12 13  1  0
 13 14  1  0
 14 15  1  0
 14 16  1  0
 16 17  1  0
 17 18  1  0
 18 19  1  0
 19 20  1  0
 20 21  1  0
 21 22  2  0
 22 23  1  0
 23 24  2  0
 24 25  1  0
 25 26  2  0
 14 27  1  0
 27 28  1  0
 10  3  1  0
 28 11  1  0
 26 21  1  0
M  END
$$$$

     RDKit          3D

 29 31  0  0  0  0  0  0  0  0999 V2000
  131.2230  119.6260  135.5400 O   0  0  0  0  0  0  0  0  0  0  0  0
  130.6070  120.7320  135.8180 C   0  0  0  0  0  0  0  0  0  0  0  0
  129.1660  120.6530  135.8680 C   0  0  0  0  0  0  0  0  0  0  0  0
  128.5430  120.3960  137.0850 C   0  0  0  0  0  0  0  0  0  0  0  0
  127.1950  120.3320  137.2780 C   0  0  0  0  0  0  0  0  0  0  0  0
  126.3750  120.5360  136.1870 C   0  0  0  0  0  0  0  0  0  0  0  0
  124.6360  120.4550  136.4280 Cl  0  0  0  0  0  0  0  0  0  0  0  0
  126.9420  120.7910  134.9650 C   0  0  0  0  0  0  0  0  0  0  0  0
  125.8870  121.0490  133.5920 Cl  0  0  0  0  0  0  0  0  0  0  0  0
  128.3220  120.8500  134.8040 C   0  0  0  0  0  0  0  0  0  0  0  0
  131.4090  121.8360  136.0340 N   0  0  0  0  0  0  0  0  0  0  0  0
  131.0690  123.1770  136.3940 C   0  0  0  0  0  0  0  0  0  0  0  0
  132.0920  124.1190  135.7220 C   0  0  0  0  0  0  0  0  0  0  0  0
  133.3860  123.9850  136.4740 C   0  0  0  0  0  0  0  0  0  0  0  0
  134.4170  124.3390  135.6400 F   0  0  0  0  0  0  0  0  0  0  0  0
  133.3600  124.7730  137.7720 C   0  0  0  0  0  0  0  0  0  0  0  0
  133.0670  126.1530  137.6270 N   0  0  0  0  0  0  0  0  0  0  0  0
  131.8950  126.6600  138.2020 C   0  0  0  0  0  0  0  0  0  0  0  0
  131.0410  125.7390  139.0290 C   0  0  0  0  0  0  0  0  0  0  0  0
  129.7310  125.7690  138.9600 O   0  0  0  0  0  0  0  0  0  0  0  0
  128.6190  125.0840  138.8190 C   0  0  0  0  0  0  0  0  0  0  0  0
  127.8730  124.5840  139.8550 C   0  0  0  0  0  0  0  0  0  0  0  0
  126.7150  123.8750  139.6000 C   0  0  0  0  0  0  0  0  0  0  0  0
  126.2620  123.6400  138.3400 C   0  0  0  0  0  0  0  0  0  0  0  0
  126.9820  124.1250  137.2710 C   0  0  0  0  0  0  0  0  0  0  0  0
  126.5160  123.8800  136.0270 F   0  0  0  0  0  0  0  0  0  0  0  0
  128.1210  124.8230  137.5080 C   0  0  0  0  0  0  0  0  0  0  0  0
  133.5390  122.5210  136.9080 C   0  0  0  0  0  0  0  0  0  0  0  0
  132.8820  121.6420  135.8430 C   0  0  0  0  0  0  0  0  0  0  0  0
  1  2  2  0
  2  3  1  0
  3  4  2  0
  4  5  1  0
  5  6  2  0
  6  7  1  0
  6  8  1  0
  8  9  1  0
  8 10  2  0
  2 11  1  0
 11 12  1  0
 12 13  1  0
 13 14  1  0
 14 15  1  0
 14 16  1  0
 16 17  1  0
 17 18  1  0
 18 19  1  0
 19 20  1  0
 20 21  1  0
 21 22  2  0
 22 23  1  0
 23 24  2  0
 24 25  1  0
 25 26  1  0
 25 27  2  0
 14 28  1  0
 28 29  1  0
 10  3  1  0
 29 11  1  0
 27 21  1  0
M  END
$$$$

     RDKit          3D

 31 33  0  0  0  0  0  0  0  0999 V2000
  126.0390  130.2550  135.1290 N   0  0  0  0  0  0  0  0  0  0  0  0
  125.7190  128.9100  135.4500 C   0  0  0  0  0  0  0  0  0  0  0  0
  124.5110  128.6010  135.6030 O   0  0  0  0  0  0  0  0  0  0  0  0
  126.7950  127.9370  135.5900 C   0  0  0  0  0  0  0  0  0  0  0  0
  126.9720  126.9780  134.6230 C   0  0  0  0  0  0  0  0  0  0  0  0
  127.9860  126.0720  134.7740 C   0  0  0  0  0  0  0  0  0  0  0  0
  128.8200  126.1000  135.8570 C   0  0  0  0  0  0  0  0  0  0  0  0
  128.6050  127.0920  136.8160 C   0  0  0  0  0  0  0  0  0  0  0  0
  127.6100  128.0320  136.7320 C   0  0  0  0  0  0  0  0  0  0  0  0
  127.3120  129.0210  137.5900 O   0  0  0  0  0  0  0  0  0  0  0  0
  128.0410  129.9580  138.2340 C   0  0  0  0  0  0  0  0  0  0  0  0
  127.5300  131.3900  138.1720 C   0  0  0  0  0  0  0  0  0  0  0  0
  127.9080  132.0000  136.9760 N   0  0  0  0  0  0  0  0  0  0  0  0
  129.1720  132.0330  136.4310 C   0  0  0  0  0  0  0  0  0  0  0  0
  129.4640  132.9320  135.2540 C   0  0  0  0  0  0  0  0  0  0  0  0
  129.7070  134.1950  135.8460 F   0  0  0  0  0  0  0  0  0  0  0  0
  128.3240  133.0200  134.3540 C   0  0  0  0  0  0  0  0  0  0  0  0
  128.4800  132.5380  132.9330 C   0  0  0  0  0  0  0  0  0  0  0  0
  129.4630  131.4210  133.0650 N   0  0  0  0  0  0  0  0  0  0  0  0
  129.0190  130.1110  132.9520 C   0  0  0  0  0  0  0  0  0  0  0  0
  127.7330  129.9340  132.8220 O   0  0  0  0  0  0  0  0  0  0  0  0
  129.7940  128.8930  132.9590 C   0  0  0  0  0  0  0  0  0  0  0  0
  130.7240  128.5310  133.8920 C   0  0  0  0  0  0  0  0  0  0  0  0
  131.4860  127.3590  133.8120 C   0  0  0  0  0  0  0  0  0  0  0  0
  131.3190  126.5080  132.7550 C   0  0  0  0  0  0  0  0  0  0  0  0
  132.0320  125.3640  132.6320 F   0  0  0  0  0  0  0  0  0  0  0  0
  130.3940  126.8350  131.7900 C   0  0  0  0  0  0  0  0  0  0  0  0
  130.1900  125.7310  130.4320 Cl  0  0  0  0  0  0  0  0  0  0  0  0
  129.6610  127.9840  131.8910 C   0  0  0  0  0  0  0  0  0  0  0  0
  130.7650  131.9590  133.3250 C   0  0  0  0  0  0  0  0  0  0  0  0
  130.8080  132.4550  134.7440 C   0  0  0  0  0  0  0  0  0  0  0  0
  1  2  1  0
  2  3  2  0
  2  4  1  0
  4  5  2  0
  5  6  1  0
  6  7  2  0
  7  8  1  0
  8  9  2  0
  9 10  1  0
 10 11  1  0
 11 12  1  0
 12 13  1  0
 13 14  1  0
 14 15  1  0
 15 16  1  0
 15 17  1  0
 17 18  1  0
 18 19  1  0
 19 20  1  0
 20 21  2  0
 20 22  1  0
 22 23  2  0
 23 24  1  0
 24 25  2  0
 25 26  1  0
 25 27  1  0
 27 28  1  0
 27 29  2  0
 19 30  1  0
 30 31  1  0
  9  4  1  0
 31 15  1  0
 29 22  1  0
M  END
$$$$

     RDKit          3D

 28 30  0  0  0  0  0  0  0  0999 V2000
  131.8860  125.3190  134.4230 O   0  0  0  0  0  0  0  0  0  0  0  0
  132.5510  124.5320  133.5930 C   0  0  0  0  0  0  0  0  0  0  0  0
  133.5840  123.7850  134.2720 C   0  0  0  0  0  0  0  0  0  0  0  0
  133.2360  122.9520  135.3500 C   0  0  0  0  0  0  0  0  0  0  0  0
  134.1380  122.1780  136.0350 C   0  0  0  0  0  0  0  0  0  0  0  0
  135.4570  122.2050  135.6610 C   0  0  0  0  0  0  0  0  0  0  0  0
  136.6150  121.2210  136.5310 Cl  0  0  0  0  0  0  0  0  0  0  0  0
  135.8380  123.0050  134.6140 C   0  0  0  0  0  0  0  0  0  0  0  0
  137.5340  123.0240  134.1570 Cl  0  0  0  0  0  0  0  0  0  0  0  0
  134.9100  123.7970  133.9170 C   0  0  0  0  0  0  0  0  0  0  0  0
  132.1480  124.5660  132.2680 N   0  0  0  0  0  0  0  0  0  0  0  0
  131.0570  125.5250  131.9400 C   0  0  0  0  0  0  0  0  0  0  0  0
  130.1130  124.7150  131.0440 C   0  0  0  0  0  0  0  0  0  0  0  0
  130.7660  124.5870  129.7060 C   0  0  0  0  0  0  0  0  0  0  0  0
  130.1440  123.5290  129.0300 F   0  0  0  0  0  0  0  0  0  0  0  0
  130.5980  125.8670  128.8940 C   0  0  0  0  0  0  0  0  0  0  0  0
  131.9040  126.2580  128.4840 N   0  0  0  0  0  0  0  0  0  0  0  0
  132.1220  127.6500  128.2760 C   0  0  0  0  0  0  0  0  0  0  0  0
  133.3400  128.1600  129.0350 C   0  0  0  0  0  0  0  0  0  0  0  0
  133.2110  127.6660  130.3430 O   0  0  0  0  0  0  0  0  0  0  0  0
  134.3070  127.2920  131.0590 C   0  0  0  0  0  0  0  0  0  0  0  0
  134.4560  127.7130  132.3620 C   0  0  0  0  0  0  0  0  0  0  0  0
  135.5650  127.3340  133.0850 C   0  0  0  0  0  0  0  0  0  0  0  0
  136.5080  126.5260  132.4610 C   0  0  0  0  0  0  0  0  0  0  0  0
  136.3550  126.1080  131.1540 C   0  0  0  0  0  0  0  0  0  0  0  0
  135.2480  126.4870  130.4320 C   0  0  0  0  0  0  0  0  0  0  0  0
  132.2070  124.2620  129.8480 C   0  0  0  0  0  0  0  0  0  0  0  0
  132.6520  123.7540  131.2200 C   0  0  0  0  0  0  0  0  0  0  0  0
  1  2  2  0
  2  3  1  0
  3  4  2  0
  4  5  1  0
  5  6  2  0
  6  7  1  0
  6  8  1  0
  8  9  1  0
  8 10  2  0
  2 11  1  0
 11 12  1  0
 12 13  1  0
 13 14  1  0
 14 15  1  0
 14 16  1  0
 16 17  1  0
 17 18  1  0
 18 19  1  0
 19 20  1  0
 20 21  1  0
 21 22  2  0
 22 23  1  0
 23 24  2  0
 24 25  1  0
 25 26  2  0
 14 27  1  0
 27 28  1  0
 10  3  1  0
 28 11  1  0
 26 21  1  0
M  END
$$$$

     RDKit          3D

 29 31  0  0  0  0  0  0  0  0999 V2000
  129.2500  127.5640  135.8600 O   0  0  0  0  0  0  0  0  0  0  0  0
  129.6520  126.3440  135.5960 C   0  0  0  0  0  0  0  0  0  0  0  0
  129.3370  125.8910  134.2770 C   0  0  0  0  0  0  0  0  0  0  0  0
  130.1700  125.8190  133.2020 C   0  0  0  0  0  0  0  0  0  0  0  0
  129.7990  125.3480  131.9400 C   0  0  0  0  0  0  0  0  0  0  0  0
  128.5200  124.9200  131.7280 C   0  0  0  0  0  0  0  0  0  0  0  0
  128.1160  124.4540  130.5180 F   0  0  0  0  0  0  0  0  0  0  0  0
  127.6470  124.9750  132.7850 C   0  0  0  0  0  0  0  0  0  0  0  0
  125.9940  124.4230  132.5140 Cl  0  0  0  0  0  0  0  0  0  0  0  0
  128.0190  125.4390  134.0220 C   0  0  0  0  0  0  0  0  0  0  0  0
  130.3130  125.7440  136.6840 N   0  0  0  0  0  0  0  0  0  0  0  0
  130.8580  124.4390  136.6500 C   0  0  0  0  0  0  0  0  0  0  0  0
  131.2310  123.7670  137.9290 C   0  0  0  0  0  0  0  0  0  0  0  0
  130.9990  124.6200  139.1320 C   0  0  0  0  0  0  0  0  0  0  0  0
  131.9720  124.0850  140.0730 F   0  0  0  0  0  0  0  0  0  0  0  0
  129.6810  124.2890  139.7570 C   0  0  0  0  0  0  0  0  0  0  0  0
  129.4000  122.9550  140.0660 N   0  0  0  0  0  0  0  0  0  0  0  0
  128.1550  122.4060  139.5640 C   0  0  0  0  0  0  0  0  0  0  0  0
  128.5530  121.0040  139.0310 C   0  0  0  0  0  0  0  0  0  0  0  0
  128.0650  120.8680  137.7330 O   0  0  0  0  0  0  0  0  0  0  0  0
  128.9220  121.0730  136.6340 C   0  0  0  0  0  0  0  0  0  0  0  0
  128.4410  121.7780  135.5560 C   0  0  0  0  0  0  0  0  0  0  0  0
  129.2380  122.0420  134.4210 C   0  0  0  0  0  0  0  0  0  0  0  0
  130.5330  121.5760  134.3890 C   0  0  0  0  0  0  0  0  0  0  0  0
  131.0110  120.8740  135.4560 C   0  0  0  0  0  0  0  0  0  0  0  0
  132.6600  120.2850  135.4130 Cl  0  0  0  0  0  0  0  0  0  0  0  0
  130.2160  120.6140  136.5840 C   0  0  0  0  0  0  0  0  0  0  0  0
  131.4000  126.0060  138.9230 C   0  0  0  0  0  0  0  0  0  0  0  0
  130.3930  126.5970  137.8880 C   0  0  0  0  0  0  0  0  0  0  0  0
  1  2  2  0
  2  3  1  0
  3  4  2  0
  4  5  1  0
  5  6  2  0
  6  7  1  0
  6  8  1  0
  8  9  1  0
  8 10  2  0
  2 11  1  0
 11 12  1  0
 12 13  1  0
 13 14  1  0
 14 15  1  0
 14 16  1  0
 16 17  1  0
 17 18  1  0
 18 19  1  0
 19 20  1  0
 20 21  1  0
 21 22  2  0
 22 23  1  0
 23 24  2  0
 24 25  1  0
 25 26  1  0
 25 27  2  0
 14 28  1  0
 28 29  1  0
 10  3  1  0
 29 11  1  0
 27 21  1  0
M  END
$$$$

     RDKit          3D

 28 30  0  0  0  0  0  0  0  0999 V2000
  131.7900  121.8010  134.4430 O   0  0  0  0  0  0  0  0  0  0  0  0
  130.8380  121.7920  133.5150 C   0  0  0  0  0  0  0  0  0  0  0  0
  131.2550  121.1230  132.3170 C   0  0  0  0  0  0  0  0  0  0  0  0
  131.2590  119.7060  132.3140 C   0  0  0  0  0  0  0  0  0  0  0  0
  131.5580  119.0280  131.1810 C   0  0  0  0  0  0  0  0  0  0  0  0
  131.8660  119.6500  130.0040 C   0  0  0  0  0  0  0  0  0  0  0  0
  132.1570  118.9550  128.8880 F   0  0  0  0  0  0  0  0  0  0  0  0
  131.8600  121.0210  130.0160 C   0  0  0  0  0  0  0  0  0  0  0  0
  132.2400  121.9450  128.5520 Cl  0  0  0  0  0  0  0  0  0  0  0  0
  131.5610  121.7750  131.1560 C   0  0  0  0  0  0  0  0  0  0  0  0
  129.6420  122.4030  133.8420 N   0  0  0  0  0  0  0  0  0  0  0  0
  128.4310  122.5090  133.1210 C   0  0  0  0  0  0  0  0  0  0  0  0
  128.1560  124.0160  132.9320 C   0  0  0  0  0  0  0  0  0  0  0  0
  127.8410  124.5820  134.3030 C   0  0  0  0  0  0  0  0  0  0  0  0
  128.5160  125.7720  134.3940 F   0  0  0  0  0  0  0  0  0  0  0  0
  126.3290  124.7450  134.5220 C   0  0  0  0  0  0  0  0  0  0  0  0
  125.7400  123.5740  134.9790 N   0  0  0  0  0  0  0  0  0  0  0  0
  124.8860  123.5260  136.0760 C   0  0  0  0  0  0  0  0  0  0  0  0
  124.4490  122.1360  136.4670 C   0  0  0  0  0  0  0  0  0  0  0  0
  125.6200  121.1180  137.2910 S   0  0  0  0  0  0  0  0  0  0  0  0
  126.8160  120.2860  136.3100 C   0  0  0  0  0  0  0  0  0  0  0  0
  128.1290  120.0530  136.6880 C   0  0  0  0  0  0  0  0  0  0  0  0
  129.0030  119.3940  135.8500 C   0  0  0  0  0  0  0  0  0  0  0  0
  128.5630  118.9650  134.6280 C   0  0  0  0  0  0  0  0  0  0  0  0
  127.2460  119.2000  134.2490 C   0  0  0  0  0  0  0  0  0  0  0  0
  126.4360  119.8380  135.0900 N   0  0  0  0  0  0  0  0  0  0  0  0
  128.2810  123.6430  135.4130 C   0  0  0  0  0  0  0  0  0  0  0  0
  129.6290  123.0800  135.1730 C   0  0  0  0  0  0  0  0  0  0  0  0
  1  2  2  0
  2  3  1  0
  3  4  2  0
  4  5  1  0
  5  6  2  0
  6  7  1  0
  6  8  1  0
  8  9  1  0
  8 10  2  0
  2 11  1  0
 11 12  1  0
 12 13  1  0
 13 14  1  0
 14 15  1  0
 14 16  1  0
 16 17  1  0
 17 18  1  0
 18 19  1  0
 19 20  1  0
 20 21  1  0
 21 22  2  0
 22 23  1  0
 23 24  2  0
 24 25  1  0
 25 26  2  0
 14 27  1  0
 27 28  1  0
 10  3  1  0
 28 11  1  0
 26 21  1  0
M  END
$$$$

     RDKit          3D

 31 34  0  0  0  0  0  0  0  0999 V2000
  125.9260  122.2270  140.7470 O   0  0  0  0  0  0  0  0  0  0  0  0
  126.1080  123.5140  140.9330 C   0  0  0  0  0  0  0  0  0  0  0  0
  127.2310  123.8720  141.7200 C   0  0  0  0  0  0  0  0  0  0  0  0
  127.2500  124.1780  143.0610 C   0  0  0  0  0  0  0  0  0  0  0  0
  128.4460  124.4750  143.7050 C   0  0  0  0  0  0  0  0  0  0  0  0
  129.6600  124.4830  143.0720 C   0  0  0  0  0  0  0  0  0  0  0  0
  130.8180  124.7790  143.7280 F   0  0  0  0  0  0  0  0  0  0  0  0
  129.6480  124.1790  141.7330 C   0  0  0  0  0  0  0  0  0  0  0  0
  131.1680  124.1670  140.8280 Cl  0  0  0  0  0  0  0  0  0  0  0  0
  128.4820  123.8840  141.0800 C   0  0  0  0  0  0  0  0  0  0  0  0
  125.1590  124.3250  140.3190 N   0  0  0  0  0  0  0  0  0  0  0  0
  124.0350  123.7120  139.5700 C   0  0  0  0  0  0  0  0  0  0  0  0
  122.7380  124.3610  139.9800 C   0  0  0  0  0  0  0  0  0  0  0  0
  122.7750  125.8460  139.7680 C   0  0  0  0  0  0  0  0  0  0  0  0
  122.6270  126.5150  140.9660 F   0  0  0  0  0  0  0  0  0  0  0  0
  121.7040  126.3660  138.8340 C   0  0  0  0  0  0  0  0  0  0  0  0
  122.0650  127.5830  138.1930 N   0  0  0  0  0  0  0  0  0  0  0  0
  121.4250  128.7000  138.8540 C   0  0  0  0  0  0  0  0  0  0  0  0
  122.3580  129.8110  139.2400 C   0  0  0  0  0  0  0  0  0  0  0  0
  122.9420  129.7230  140.4750 O   0  0  0  0  0  0  0  0  0  0  0  0
  124.1810  129.4660  140.9380 C   0  0  0  0  0  0  0  0  0  0  0  0
  125.3180  129.5740  140.1780 C   0  0  0  0  0  0  0  0  0  0  0  0
  126.5640  129.2920  140.7230 C   0  0  0  0  0  0  0  0  0  0  0  0
  126.6800  128.8950  142.0330 C   0  0  0  0  0  0  0  0  0  0  0  0
  125.5340  128.7880  142.7860 C   0  0  0  0  0  0  0  0  0  0  0  0
  125.3280  128.4310  144.0770 N   0  0  0  0  0  0  0  0  0  0  0  0
  124.0340  128.4680  144.3960 C   0  0  0  0  0  0  0  0  0  0  0  0
  123.3560  128.8700  143.2540 C   0  0  0  0  0  0  0  0  0  0  0  0
  124.2940  129.0620  142.2780 C   0  0  0  0  0  0  0  0  0  0  0  0
  124.1540  126.2370  139.2260 C   0  0  0  0  0  0  0  0  0  0  0  0
  125.1840  125.7540  140.3020 C   0  0  0  0  0  0  0  0  0  0  0  0
  1  2  2  0
  2  3  1  0
  3  4  2  0
  4  5  1  0
  5  6  2  0
  6  7  1  0
  6  8  1  0
  8  9  1  0
  8 10  2  0
  2 11  1  0
 11 12  1  0
 12 13  1  0
 13 14  1  0
 14 15  1  0
 14 16  1  0
 16 17  1  0
 17 18  1  0
 18 19  1  0
 19 20  1  0
 20 21  1  0
 21 22  2  0
 22 23  1  0
 23 24  2  0
 24 25  1  0
 25 26  1  0
 26 27  1  0
 27 28  2  0
 28 29  1  0
 14 30  1  0
 30 31  1  0
 10  3  1  0
 31 11  1  0
 29 21  1  0
 29 25  2  0
M  END
$$$$

     RDKit          3D

 32 35  0  0  0  0  0  0  0  0999 V2000
  131.2370  126.0640  137.8890 O   0  0  0  0  0  0  0  0  0  0  0  0
  131.0770  126.8990  136.8830 C   0  0  0  0  0  0  0  0  0  0  0  0
  129.8510  126.7080  136.1490 C   0  0  0  0  0  0  0  0  0  0  0  0
  129.4980  127.3310  134.9800 C   0  0  0  0  0  0  0  0  0  0  0  0
  128.2650  127.1330  134.3420 C   0  0  0  0  0  0  0  0  0  0  0  0
  127.3340  126.2810  134.8840 C   0  0  0  0  0  0  0  0  0  0  0  0
  125.7820  126.0210  134.0980 Cl  0  0  0  0  0  0  0  0  0  0  0  0
  127.6630  125.6500  136.0490 C   0  0  0  0  0  0  0  0  0  0  0  0
  126.4570  124.5590  136.7290 Cl  0  0  0  0  0  0  0  0  0  0  0  0
  128.8710  125.8400  136.6770 C   0  0  0  0  0  0  0  0  0  0  0  0
  132.1240  127.7880  136.7440 N   0  0  0  0  0  0  0  0  0  0  0  0
  133.2360  127.7440  137.7700 C   0  0  0  0  0  0  0  0  0  0  0  0
  133.2530  129.1560  138.3430 C   0  0  0  0  0  0  0  0  0  0  0  0
  132.1570  130.0460  137.8920 C   0  0  0  0  0  0  0  0  0  0  0  0
  130.9570  129.4890  138.3620 F   0  0  0  0  0  0  0  0  0  0  0  0
  132.2610  131.4470  138.4280 C   0  0  0  0  0  0  0  0  0  0  0  0
  131.1120  131.7920  139.2090 N   0  0  0  0  0  0  0  0  0  0  0  0
  130.5550  133.0650  138.7680 C   0  0  0  0  0  0  0  0  0  0  0  0
  129.6250  132.8750  137.6100 C   0  0  0  0  0  0  0  0  0  0  0  0
  128.3820  132.4600  138.0390 O   0  0  0  0  0  0  0  0  0  0  0  0
  127.8230  131.2120  137.9690 C   0  0  0  0  0  0  0  0  0  0  0  0
  127.3550  130.6480  136.8220 C   0  0  0  0  0  0  0  0  0  0  0  0
  126.7990  129.3950  136.8180 C   0  0  0  0  0  0  0  0  0  0  0  0
  126.7070  128.6830  137.9860 C   0  0  0  0  0  0  0  0  0  0  0  0
  127.1720  129.2270  139.1590 C   0  0  0  0  0  0  0  0  0  0  0  0
  127.7170  130.4590  139.1520 C   0  0  0  0  0  0  0  0  0  0  0  0
  128.1850  131.0110  140.3120 O   0  0  0  0  0  0  0  0  0  0  0  0
  128.0220  130.4230  141.5860 C   0  0  0  0  0  0  0  0  0  0  0  0
  127.2990  129.1320  141.5890 C   0  0  0  0  0  0  0  0  0  0  0  0
  127.0920  128.5300  140.3490 O   0  0  0  0  0  0  0  0  0  0  0  0
  131.9850  130.1130  136.3820 C   0  0  0  0  0  0  0  0  0  0  0  0
  132.3930  128.7800  135.7500 C   0  0  0  0  0  0  0  0  0  0  0  0
  1  2  2  0
  2  3  1  0
  3  4  2  0
  4  5  1  0
  5  6  2  0
  6  7  1  0
  6  8  1  0
  8  9  1  0
  8 10  2  0
  2 11  1  0
 11 12  1  0
 12 13  1  0
 13 14  1  0
 14 15  1  0
 14 16  1  0
 16 17  1  0
 17 18  1  0
 18 19  1  0
 19 20  1  0
 20 21  1  0
 21 22  2  0
 22 23  1  0
 23 24  2  0
 24 25  1  0
 25 26  2  0
 26 27  1  0
 27 28  1  0
 28 29  1  0
 29 30  1  0
 14 31  1  0
 31 32  1  0
 10  3  1  0
 32 11  1  0
 26 21  1  0
 30 25  1  0
M  END
$$$$

     RDKit          3D

 28 30  0  0  0  0  0  0  0  0999 V2000
  133.1480  127.4650  134.3750 O   0  0  0  0  0  0  0  0  0  0  0  0
  132.0270  127.0770  134.9330 C   0  0  0  0  0  0  0  0  0  0  0  0
  132.2150  126.1490  136.0190 C   0  0  0  0  0  0  0  0  0  0  0  0
  133.2510  126.1710  136.9040 C   0  0  0  0  0  0  0  0  0  0  0  0
  133.3670  125.2500  137.9090 C   0  0  0  0  0  0  0  0  0  0  0  0
  132.4540  124.2410  138.1020 C   0  0  0  0  0  0  0  0  0  0  0  0
  132.5340  123.3170  139.0790 F   0  0  0  0  0  0  0  0  0  0  0  0
  131.3980  124.2140  137.2030 C   0  0  0  0  0  0  0  0  0  0  0  0
  130.1940  122.9470  137.3950 Cl  0  0  0  0  0  0  0  0  0  0  0  0
  131.2780  125.1340  136.1950 C   0  0  0  0  0  0  0  0  0  0  0  0
  130.8970  127.6330  134.3690 N   0  0  0  0  0  0  0  0  0  0  0  0
  131.0930  128.5820  133.2390 C   0  0  0  0  0  0  0  0  0  0  0  0
  130.4010  129.8530  133.7500 C   0  0  0  0  0  0  0  0  0  0  0  0
  128.9210  129.5860  133.5930 C   0  0  0  0  0  0  0  0  0  0  0  0
  128.6680  129.8290  132.2290 F   0  0  0  0  0  0  0  0  0  0  0  0
  128.0610  130.5840  134.3220 C   0  0  0  0  0  0  0  0  0  0  0  0
  128.6300  131.1340  135.5070 N   0  0  0  0  0  0  0  0  0  0  0  0
  127.8520  130.6430  136.6330 C   0  0  0  0  0  0  0  0  0  0  0  0
  128.6800  130.4150  137.8520 C   0  0  0  0  0  0  0  0  0  0  0  0
  129.8870  129.5880  137.4770 C   0  0  0  0  0  0  0  0  0  0  0  0
  130.0560  128.4490  138.4010 C   0  0  0  0  0  0  0  0  0  0  0  0
  131.1650  128.2990  139.1850 C   0  0  0  0  0  0  0  0  0  0  0  0
  131.2890  127.2360  140.0270 C   0  0  0  0  0  0  0  0  0  0  0  0
  130.2620  126.3000  140.0770 C   0  0  0  0  0  0  0  0  0  0  0  0
  129.1280  126.4260  139.2950 C   0  0  0  0  0  0  0  0  0  0  0  0
  129.0380  127.5090  138.4610 C   0  0  0  0  0  0  0  0  0  0  0  0
  128.5740  128.1740  133.8510 C   0  0  0  0  0  0  0  0  0  0  0  0
  129.5590  127.4040  134.7350 C   0  0  0  0  0  0  0  0  0  0  0  0
  1  2  2  0
  2  3  1  0
  3  4  2  0
  4  5  1  0
  5  6  2  0
  6  7  1  0
  6  8  1  0
  8  9  1  0
  8 10  2  0
  2 11  1  0
 11 12  1  0
 12 13  1  0
 13 14  1  0
 14 15  1  0
 14 16  1  0
 16 17  1  0
 17 18  1  0
 18 19  1  0
 19 20  1  0
 20 21  1  0
 21 22  2  0
 22 23  1  0
 23 24  2  0
 24 25  1  0
 25 26  2  0
 14 27  1  0
 27 28  1  0
 10  3  1  0
 28 11  1  0
 26 21  1  0
M  END
$$$$

     RDKit          3D

 29 31  0  0  0  0  0  0  0  0999 V2000
  124.4420  121.4000  137.0410 C   0  0  0  0  0  0  0  0  0  0  0  0
  125.2240  122.6780  137.1140 C   0  0  0  0  0  0  0  0  0  0  0  0
  126.5790  122.6990  136.8810 C   0  0  0  0  0  0  0  0  0  0  0  0
  127.3040  123.8670  136.9450 C   0  0  0  0  0  0  0  0  0  0  0  0
  126.6480  125.0660  137.2540 C   0  0  0  0  0  0  0  0  0  0  0  0
  127.4090  126.2170  137.3080 O   0  0  0  0  0  0  0  0  0  0  0  0
  128.3050  126.4280  138.3510 C   0  0  0  0  0  0  0  0  0  0  0  0
  129.2620  127.5470  138.1920 C   0  0  0  0  0  0  0  0  0  0  0  0
  130.0910  127.5630  137.0540 N   0  0  0  0  0  0  0  0  0  0  0  0
  129.7180  128.5620  136.0980 C   0  0  0  0  0  0  0  0  0  0  0  0
  129.9040  128.0230  134.6660 C   0  0  0  0  0  0  0  0  0  0  0  0
  131.1840  128.2470  134.2350 F   0  0  0  0  0  0  0  0  0  0  0  0
  128.9030  128.7300  133.7700 C   0  0  0  0  0  0  0  0  0  0  0  0
  127.5220  128.3670  134.2440 C   0  0  0  0  0  0  0  0  0  0  0  0
  127.3480  126.9140  133.9410 N   0  0  0  0  0  0  0  0  0  0  0  0
  126.0700  126.3620  134.0320 C   0  0  0  0  0  0  0  0  0  0  0  0
  125.1580  127.2080  134.3850 O   0  0  0  0  0  0  0  0  0  0  0  0
  125.6410  125.0260  133.7970 C   0  0  0  0  0  0  0  0  0  0  0  0
  124.2530  124.7170  133.9180 C   0  0  0  0  0  0  0  0  0  0  0  0
  123.7850  123.4540  133.7180 C   0  0  0  0  0  0  0  0  0  0  0  0
  124.6480  122.4260  133.3890 C   0  0  0  0  0  0  0  0  0  0  0  0
  124.1620  121.1730  133.1970 F   0  0  0  0  0  0  0  0  0  0  0  0
  125.9920  122.6610  133.2580 C   0  0  0  0  0  0  0  0  0  0  0  0
  127.1180  121.3960  132.8450 Cl  0  0  0  0  0  0  0  0  0  0  0  0
  126.4520  123.9700  133.4690 C   0  0  0  0  0  0  0  0  0  0  0  0
  128.5740  126.2530  133.5920 C   0  0  0  0  0  0  0  0  0  0  0  0
  129.6250  126.5520  134.7080 C   0  0  0  0  0  0  0  0  0  0  0  0
  125.3320  125.0150  137.4740 N   0  0  0  0  0  0  0  0  0  0  0  0
  124.6130  123.8840  137.4150 C   0  0  0  0  0  0  0  0  0  0  0  0
  1  2  1  0
  2  3  2  0
  3  4  1  0
  4  5  2  0
  5  6  1  0
  6  7  1  0
  7  8  1  0
  8  9  1  0
  9 10  1  0
 10 11  1  0
 11 12  1  0
 11 13  1  0
 13 14  1  0
 14 15  1  0
 15 16  1  0
 16 17  2  0
 16 18  1  0
 18 19  2  0
 19 20  1  0
 20 21  2  0
 21 22  1  0
 21 23  1  0
 23 24  1  0
 23 25  2  0
 15 26  1  0
 26 27  1  0
  5 28  1  0
 28 29  2  0
 29  2  1  0
 27 11  1  0
 25 18  1  0
M  END
$$$$

     RDKit          3D

 28 30  0  0  0  0  0  0  0  0999 V2000
  124.1620  122.8250  139.8060 O   0  0  0  0  0  0  0  0  0  0  0  0
  125.2060  123.6440  139.7940 C   0  0  0  0  0  0  0  0  0  0  0  0
  126.3990  122.9820  139.3050 C   0  0  0  0  0  0  0  0  0  0  0  0
  127.2280  123.5380  138.3680 C   0  0  0  0  0  0  0  0  0  0  0  0
  128.3860  122.8710  138.0000 C   0  0  0  0  0  0  0  0  0  0  0  0
  128.7290  121.6650  138.5490 C   0  0  0  0  0  0  0  0  0  0  0  0
  129.8730  121.0430  138.1630 F   0  0  0  0  0  0  0  0  0  0  0  0
  127.9250  121.0720  139.4960 C   0  0  0  0  0  0  0  0  0  0  0  0
  128.3610  119.5290  140.1920 Cl  0  0  0  0  0  0  0  0  0  0  0  0
  126.7840  121.7470  139.8470 C   0  0  0  0  0  0  0  0  0  0  0  0
  124.9870  124.9320  140.2300 N   0  0  0  0  0  0  0  0  0  0  0  0
  123.6300  125.2490  140.7750 C   0  0  0  0  0  0  0  0  0  0  0  0
  123.8310  126.5760  141.4890 C   0  0  0  0  0  0  0  0  0  0  0  0
  124.9880  126.6320  142.4240 C   0  0  0  0  0  0  0  0  0  0  0  0
  125.1710  127.8540  142.9730 F   0  0  0  0  0  0  0  0  0  0  0  0
  124.7560  125.5320  143.4630 C   0  0  0  0  0  0  0  0  0  0  0  0
  125.8170  124.6400  143.5880 N   0  0  0  0  0  0  0  0  0  0  0  0
  125.7890  123.6440  144.5560 C   0  0  0  0  0  0  0  0  0  0  0  0
  126.7090  122.4690  144.3860 C   0  0  0  0  0  0  0  0  0  0  0  0
  127.7580  122.5000  143.6490 O   0  0  0  0  0  0  0  0  0  0  0  0
  128.8150  122.5310  142.8820 C   0  0  0  0  0  0  0  0  0  0  0  0
  129.0870  123.6360  142.0500 C   0  0  0  0  0  0  0  0  0  0  0  0
  130.1690  123.6860  141.2510 C   0  0  0  0  0  0  0  0  0  0  0  0
  131.0440  122.6260  141.2360 C   0  0  0  0  0  0  0  0  0  0  0  0
  130.7830  121.5330  142.0510 C   0  0  0  0  0  0  0  0  0  0  0  0
  129.7070  121.4930  142.8430 N   0  0  0  0  0  0  0  0  0  0  0  0
  126.2810  126.2620  141.6810 C   0  0  0  0  0  0  0  0  0  0  0  0
  125.8490  126.0600  140.2240 C   0  0  0  0  0  0  0  0  0  0  0  0
  1  2  2  0
  2  3  1  0
  3  4  2  0
  4  5  1  0
  5  6  2  0
  6  7  1  0
  6  8  1  0
  8  9  1  0
  8 10  2  0
  2 11  1  0
 11 12  1  0
 12 13  1  0
 13 14  1  0
 14 15  1  0
 14 16  1  0
 16 17  1  0
 17 18  1  0
 18 19  1  0
 19 20  1  0
 20 21  1  0
 21 22  2  0
 22 23  1  0
 23 24  2  0
 24 25  1  0
 25 26  2  0
 14 27  1  0
 27 28  1  0
 10  3  1  0
 28 11  1  0
 26 21  1  0
M  END
$$$$

     RDKit          3D

 29 31  0  0  0  0  0  0  0  0999 V2000
  121.3550  119.8340  137.6480 C   0  0  0  0  0  0  0  0  0  0  0  0
  122.1830  120.7250  138.5180 C   0  0  0  0  0  0  0  0  0  0  0  0
  121.7430  121.9970  138.8000 C   0  0  0  0  0  0  0  0  0  0  0  0
  122.4560  122.8670  139.5940 C   0  0  0  0  0  0  0  0  0  0  0  0
  123.6710  122.4630  140.1430 C   0  0  0  0  0  0  0  0  0  0  0  0
  124.1330  121.2010  139.8760 C   0  0  0  0  0  0  0  0  0  0  0  0
  125.3030  120.7020  140.3610 O   0  0  0  0  0  0  0  0  0  0  0  0
  126.0930  119.7020  139.8380 C   0  0  0  0  0  0  0  0  0  0  0  0
  127.0650  120.1220  138.7780 C   0  0  0  0  0  0  0  0  0  0  0  0
  127.5460  118.9460  138.0590 N   0  0  0  0  0  0  0  0  0  0  0  0
  128.8280  119.3380  137.4530 C   0  0  0  0  0  0  0  0  0  0  0  0
  128.7390  119.1280  135.9360 C   0  0  0  0  0  0  0  0  0  0  0  0
  130.0320  118.7280  135.5730 F   0  0  0  0  0  0  0  0  0  0  0  0
  127.8170  118.0200  135.6820 C   0  0  0  0  0  0  0  0  0  0  0  0
  126.6670  118.2320  134.7500 C   0  0  0  0  0  0  0  0  0  0  0  0
  126.3400  119.6950  134.8170 N   0  0  0  0  0  0  0  0  0  0  0  0
  125.1430  120.0410  135.4120 C   0  0  0  0  0  0  0  0  0  0  0  0
  124.4470  119.0540  135.9170 O   0  0  0  0  0  0  0  0  0  0  0  0
  124.5050  121.3260  135.5820 C   0  0  0  0  0  0  0  0  0  0  0  0
  123.3040  121.6930  135.0130 C   0  0  0  0  0  0  0  0  0  0  0  0
  122.7060  122.9380  135.2520 C   0  0  0  0  0  0  0  0  0  0  0  0
  123.2910  123.8650  136.0730 C   0  0  0  0  0  0  0  0  0  0  0  0
  122.7050  125.0760  136.3020 F   0  0  0  0  0  0  0  0  0  0  0  0
  124.4880  123.5230  136.6520 C   0  0  0  0  0  0  0  0  0  0  0  0
  125.2650  124.6810  137.7090 Cl  0  0  0  0  0  0  0  0  0  0  0  0
  125.0730  122.3030  136.4170 C   0  0  0  0  0  0  0  0  0  0  0  0
  127.4060  120.4430  134.2500 C   0  0  0  0  0  0  0  0  0  0  0  0
  128.5000  120.4460  135.2810 C   0  0  0  0  0  0  0  0  0  0  0  0
  123.3710  120.3300  139.0520 C   0  0  0  0  0  0  0  0  0  0  0  0
  1  2  1  0
  2  3  2  0
  3  4  1  0
  4  5  2  0
  5  6  1  0
  6  7  1  0
  7  8  1  0
  8  9  1  0
  9 10  1  0
 10 11  1  0
 11 12  1  0
 12 13  1  0
 12 14  1  0
 14 15  1  0
 15 16  1  0
 16 17  1  0
 17 18  2  0
 17 19  1  0
 19 20  2  0
 20 21  1  0
 21 22  2  0
 22 23  1  0
 22 24  1  0
 24 25  1  0
 24 26  2  0
 16 27  1  0
 27 28  1  0
  6 29  2  0
 29  2  1  0
 28 12  1  0
 26 19  1  0
M  END
$$$$

     RDKit          3D

 27 29  0  0  0  0  0  0  0  0999 V2000
  125.4970  121.6440  135.9190 C   0  0  0  0  0  0  0  0  0  0  0  0
  126.8290  122.1370  136.3560 C   0  0  0  0  0  0  0  0  0  0  0  0
  127.9150  121.2890  136.4220 C   0  0  0  0  0  0  0  0  0  0  0  0
  129.1250  121.7350  136.8190 N   0  0  0  0  0  0  0  0  0  0  0  0
  129.3200  123.0200  137.1630 C   0  0  0  0  0  0  0  0  0  0  0  0
  130.6640  123.5270  137.6040 C   0  0  0  0  0  0  0  0  0  0  0  0
  131.4890  123.5220  136.3860 N   0  0  0  0  0  0  0  0  0  0  0  0
  131.3580  124.8120  135.7910 C   0  0  0  0  0  0  0  0  0  0  0  0
  131.2950  124.8300  134.2930 C   0  0  0  0  0  0  0  0  0  0  0  0
  132.6020  125.1130  133.8660 F   0  0  0  0  0  0  0  0  0  0  0  0
  130.8490  123.5180  133.7670 C   0  0  0  0  0  0  0  0  0  0  0  0
  129.3450  123.4190  133.5150 C   0  0  0  0  0  0  0  0  0  0  0  0
  128.8330  124.5410  132.8180 N   0  0  0  0  0  0  0  0  0  0  0  0
  127.5230  124.8350  132.4010 C   0  0  0  0  0  0  0  0  0  0  0  0
  127.3890  125.9770  131.7740 O   0  0  0  0  0  0  0  0  0  0  0  0
  126.3100  124.0810  132.5530 C   0  0  0  0  0  0  0  0  0  0  0  0
  126.1080  122.8050  132.1310 C   0  0  0  0  0  0  0  0  0  0  0  0
  124.8830  122.1530  132.3250 C   0  0  0  0  0  0  0  0  0  0  0  0
  123.8400  122.7790  132.9480 C   0  0  0  0  0  0  0  0  0  0  0  0
  122.6840  122.0960  133.1050 F   0  0  0  0  0  0  0  0  0  0  0  0
  124.0130  124.0670  133.3850 C   0  0  0  0  0  0  0  0  0  0  0  0
  122.6920  124.8710  134.1800 Cl  0  0  0  0  0  0  0  0  0  0  0  0
  125.2160  124.6970  133.1910 C   0  0  0  0  0  0  0  0  0  0  0  0
  129.8750  125.5640  132.4820 C   0  0  0  0  0  0  0  0  0  0  0  0
  130.4310  125.9840  133.8580 C   0  0  0  0  0  0  0  0  0  0  0  0
  128.2600  123.8440  137.0950 N   0  0  0  0  0  0  0  0  0  0  0  0
  127.0400  123.4530  136.7100 C   0  0  0  0  0  0  0  0  0  0  0  0
  1  2  1  0
  2  3  2  0
  3  4  1  0
  4  5  2  0
  5  6  1  0
  6  7  1  0
  7  8  1  0
  8  9  1  0
  9 10  1  0
  9 11  1  0
 11 12  1  0
 12 13  1  0
 13 14  1  0
 14 15  2  0
 14 16  1  0
 16 17  2  0
 17 18  1  0
 18 19  2  0
 19 20  1  0
 19 21  1  0
 21 22  1  0
 21 23  2  0
 13 24  1  0
 24 25  1  0
  5 26  1  0
 26 27  2  0
 27  2  1  0
 25  9  1  0
 23 16  1  0
M  END
$$$$

     RDKit          3D

 30 32  0  0  0  0  0  0  0  0999 V2000
  128.4940  126.8340  142.6130 C   0  0  0  0  0  0  0  0  0  0  0  0
  129.8020  127.1920  142.9510 O   0  0  0  0  0  0  0  0  0  0  0  0
  130.6040  128.1060  142.3280 C   0  0  0  0  0  0  0  0  0  0  0  0
  130.9700  127.9560  141.0170 C   0  0  0  0  0  0  0  0  0  0  0  0
  131.7840  128.9060  140.4320 C   0  0  0  0  0  0  0  0  0  0  0  0
  132.2200  129.9930  141.1620 C   0  0  0  0  0  0  0  0  0  0  0  0
  131.8360  130.1200  142.4760 C   0  0  0  0  0  0  0  0  0  0  0  0
  131.0300  129.1950  143.0910 C   0  0  0  0  0  0  0  0  0  0  0  0
  130.6310  129.2940  144.4070 O   0  0  0  0  0  0  0  0  0  0  0  0
  129.8340  130.3130  144.9420 C   0  0  0  0  0  0  0  0  0  0  0  0
  128.3660  129.8750  145.0300 C   0  0  0  0  0  0  0  0  0  0  0  0
  127.6620  130.5800  144.0370 N   0  0  0  0  0  0  0  0  0  0  0  0
  126.6350  129.9910  143.2990 C   0  0  0  0  0  0  0  0  0  0  0  0
  126.1570  130.6220  142.0410 C   0  0  0  0  0  0  0  0  0  0  0  0
  125.2990  131.7050  142.3140 F   0  0  0  0  0  0  0  0  0  0  0  0
  127.1590  131.0960  141.0700 C   0  0  0  0  0  0  0  0  0  0  0  0
  127.8420  129.8390  140.4410 C   0  0  0  0  0  0  0  0  0  0  0  0
  126.8660  129.1250  139.6930 N   0  0  0  0  0  0  0  0  0  0  0  0
  127.0760  128.0500  138.8370 C   0  0  0  0  0  0  0  0  0  0  0  0
  125.9970  127.5440  138.2750 O   0  0  0  0  0  0  0  0  0  0  0  0
  128.2840  127.3780  138.4510 C   0  0  0  0  0  0  0  0  0  0  0  0
  128.5330  126.0790  138.9260 C   0  0  0  0  0  0  0  0  0  0  0  0
  129.6850  125.3850  138.6280 C   0  0  0  0  0  0  0  0  0  0  0  0
  130.6430  125.9800  137.8290 C   0  0  0  0  0  0  0  0  0  0  0  0
  131.7900  125.3230  137.5170 F   0  0  0  0  0  0  0  0  0  0  0  0
  130.4500  127.2420  137.3400 C   0  0  0  0  0  0  0  0  0  0  0  0
  131.6560  128.0070  136.3270 Cl  0  0  0  0  0  0  0  0  0  0  0  0
  129.2570  127.9050  137.6740 C   0  0  0  0  0  0  0  0  0  0  0  0
  125.4750  129.6170  139.8590 C   0  0  0  0  0  0  0  0  0  0  0  0
  125.2360  129.5870  141.3590 C   0  0  0  0  0  0  0  0  0  0  0  0
  1  2  1  0
  2  3  1  0
  3  4  2  0
  4  5  1  0
  5  6  2  0
  6  7  1  0
  7  8  2  0
  8  9  1  0
  9 10  1  0
 10 11  1  0
 11 12  1  0
 12 13  1  0
 13 14  1  0
 14 15  1  0
 14 16  1  0
 16 17  1  0
 17 18  1  0
 18 19  1  0
 19 20  2  0
 19 21  1  0
 21 22  2  0
 22 23  1  0
 23 24  2  0
 24 25  1  0
 24 26  1  0
 26 27  1  0
 26 28  2  0
 18 29  1  0
 29 30  1  0
  8  3  1  0
 30 14  1  0
 28 21  1  0
M  END
$$$$

     RDKit          3D

 29 31  0  0  0  0  0  0  0  0999 V2000
  130.0430  127.3070  134.6960 O   0  0  0  0  0  0  0  0  0  0  0  0
  130.3410  126.2860  133.9140 C   0  0  0  0  0  0  0  0  0  0  0  0
  130.9280  125.1950  134.6350 C   0  0  0  0  0  0  0  0  0  0  0  0
  130.3090  124.6910  135.7880 C   0  0  0  0  0  0  0  0  0  0  0  0
  130.8240  123.6720  136.5540 C   0  0  0  0  0  0  0  0  0  0  0  0
  132.0100  123.0990  136.1900 C   0  0  0  0  0  0  0  0  0  0  0  0
  132.7280  121.7960  137.1150 Cl  0  0  0  0  0  0  0  0  0  0  0  0
  132.6640  123.5490  135.0690 C   0  0  0  0  0  0  0  0  0  0  0  0
  134.2020  122.8390  134.5570 Cl  0  0  0  0  0  0  0  0  0  0  0  0
  132.1150  124.5890  134.3060 C   0  0  0  0  0  0  0  0  0  0  0  0
  130.0300  126.4790  132.5870 N   0  0  0  0  0  0  0  0  0  0  0  0
  130.1980  125.7200  131.3950 C   0  0  0  0  0  0  0  0  0  0  0  0
  131.1670  126.4430  130.4800 C   0  0  0  0  0  0  0  0  0  0  0  0
  131.1530  127.9130  130.5380 C   0  0  0  0  0  0  0  0  0  0  0  0
  130.6690  128.3380  129.2480 F   0  0  0  0  0  0  0  0  0  0  0  0
  132.5650  128.5030  130.5260 C   0  0  0  0  0  0  0  0  0  0  0  0
  133.2140  128.6050  131.7600 N   0  0  0  0  0  0  0  0  0  0  0  0
  133.4980  129.8900  132.3000 C   0  0  0  0  0  0  0  0  0  0  0  0
  133.6300  129.7050  133.8190 C   0  0  0  0  0  0  0  0  0  0  0  0
  134.4090  128.5680  134.0940 O   0  0  0  0  0  0  0  0  0  0  0  0
  134.2190  127.7540  135.1800 C   0  0  0  0  0  0  0  0  0  0  0  0
  135.1170  126.7480  135.4500 C   0  0  0  0  0  0  0  0  0  0  0  0
  134.9600  125.9060  136.5350 C   0  0  0  0  0  0  0  0  0  0  0  0
  133.8710  126.0910  137.3590 C   0  0  0  0  0  0  0  0  0  0  0  0
  132.9600  127.1190  137.0760 C   0  0  0  0  0  0  0  0  0  0  0  0
  131.6000  127.3030  138.1580 Cl  0  0  0  0  0  0  0  0  0  0  0  0
  133.1370  127.9430  135.9920 C   0  0  0  0  0  0  0  0  0  0  0  0
  130.2690  128.5630  131.5050 C   0  0  0  0  0  0  0  0  0  0  0  0
  129.2880  127.7540  132.2510 C   0  0  0  0  0  0  0  0  0  0  0  0
  1  2  2  0
  2  3  1  0
  3  4  2  0
  4  5  1  0
  5  6  2  0
  6  7  1  0
  6  8  1  0
  8  9  1  0
  8 10  2  0
  2 11  1  0
 11 12  1  0
 12 13  1  0
 13 14  1  0
 14 15  1  0
 14 16  1  0
 16 17  1  0
 17 18  1  0
 18 19  1  0
 19 20  1  0
 20 21  1  0
 21 22  2  0
 22 23  1  0
 23 24  2  0
 24 25  1  0
 25 26  1  0
 25 27  2  0
 14 28  1  0
 28 29  1  0
 10  3  1  0
 29 11  1  0
 27 21  1  0
M  END
$$$$

     RDKit          3D

 28 30  0  0  0  0  0  0  0  0999 V2000
  128.5780  127.0230  132.0900 O   0  0  0  0  0  0  0  0  0  0  0  0
  128.1370  126.8920  133.3240 C   0  0  0  0  0  0  0  0  0  0  0  0
  127.0210  127.7110  133.6860 C   0  0  0  0  0  0  0  0  0  0  0  0
  127.3140  128.9410  134.3150 C   0  0  0  0  0  0  0  0  0  0  0  0
  126.3400  129.8310  134.6710 C   0  0  0  0  0  0  0  0  0  0  0  0
  125.0160  129.5580  134.4280 C   0  0  0  0  0  0  0  0  0  0  0  0
  124.0380  130.4310  134.7740 F   0  0  0  0  0  0  0  0  0  0  0  0
  124.7220  128.3810  133.8260 C   0  0  0  0  0  0  0  0  0  0  0  0
  123.0560  127.9690  133.4870 Cl  0  0  0  0  0  0  0  0  0  0  0  0
  125.7080  127.4490  133.4510 C   0  0  0  0  0  0  0  0  0  0  0  0
  128.8180  125.9760  134.0970 N   0  0  0  0  0  0  0  0  0  0  0  0
  128.5630  125.5820  135.4260 C   0  0  0  0  0  0  0  0  0  0  0  0
  129.2620  124.2700  135.7960 C   0  0  0  0  0  0  0  0  0  0  0  0
  130.7130  124.3560  135.5730 C   0  0  0  0  0  0  0  0  0  0  0  0
  131.1170  123.1520  134.9750 F   0  0  0  0  0  0  0  0  0  0  0  0
  131.5580  124.5040  136.8250 C   0  0  0  0  0  0  0  0  0  0  0  0
  132.0560  125.8280  137.0220 N   0  0  0  0  0  0  0  0  0  0  0  0
  131.6690  126.3380  138.3220 C   0  0  0  0  0  0  0  0  0  0  0  0
  131.5130  127.8350  138.2930 C   0  0  0  0  0  0  0  0  0  0  0  0
  130.3720  128.1520  137.5220 O   0  0  0  0  0  0  0  0  0  0  0  0
  130.2990  129.1770  136.6010 C   0  0  0  0  0  0  0  0  0  0  0  0
  130.9010  129.0230  135.3680 C   0  0  0  0  0  0  0  0  0  0  0  0
  130.8700  129.9830  134.4190 N   0  0  0  0  0  0  0  0  0  0  0  0
  130.2380  131.1480  134.6470 C   0  0  0  0  0  0  0  0  0  0  0  0
  129.6340  131.3100  135.8740 C   0  0  0  0  0  0  0  0  0  0  0  0
  129.6670  130.3420  136.8270 N   0  0  0  0  0  0  0  0  0  0  0  0
  131.0760  125.4250  134.5700 C   0  0  0  0  0  0  0  0  0  0  0  0
  130.0120  125.3240  133.4570 C   0  0  0  0  0  0  0  0  0  0  0  0
  1  2  2  0
  2  3  1  0
  3  4  2  0
  4  5  1  0
  5  6  2  0
  6  7  1  0
  6  8  1  0
  8  9  1  0
  8 10  2  0
  2 11  1  0
 11 12  1  0
 12 13  1  0
 13 14  1  0
 14 15  1  0
 14 16  1  0
 16 17  1  0
 17 18  1  0
 18 19  1  0
 19 20  1  0
 20 21  1  0
 21 22  2  0
 22 23  1  0
 23 24  2  0
 24 25  1  0
 25 26  2  0
 14 27  1  0
 27 28  1  0
 10  3  1  0
 28 11  1  0
 26 21  1  0
M  END
$$$$

     RDKit          3D

 32 34  0  0  0  0  0  0  0  0999 V2000
  129.7140  127.4470  134.6940 O   0  0  0  0  0  0  0  0  0  0  0  0
  129.4160  128.1540  135.7450 C   0  0  0  0  0  0  0  0  0  0  0  0
  128.9340  127.4560  136.9170 C   0  0  0  0  0  0  0  0  0  0  0  0
  129.5020  127.5640  138.1360 C   0  0  0  0  0  0  0  0  0  0  0  0
  129.0300  126.7720  139.1950 C   0  0  0  0  0  0  0  0  0  0  0  0
  127.9910  125.8850  138.9890 C   0  0  0  0  0  0  0  0  0  0  0  0
  127.5060  125.0860  139.9830 F   0  0  0  0  0  0  0  0  0  0  0  0
  127.4070  125.7700  137.7450 C   0  0  0  0  0  0  0  0  0  0  0  0
  126.0650  124.6630  137.5090 Cl  0  0  0  0  0  0  0  0  0  0  0  0
  127.8740  126.5490  136.7180 C   0  0  0  0  0  0  0  0  0  0  0  0
  129.5990  129.5250  135.6060 N   0  0  0  0  0  0  0  0  0  0  0  0
  130.2130  130.0480  134.3700 C   0  0  0  0  0  0  0  0  0  0  0  0
  129.0990  130.7990  133.6500 C   0  0  0  0  0  0  0  0  0  0  0  0
  128.7700  132.0160  134.5270 C   0  0  0  0  0  0  0  0  0  0  0  0
  129.2450  133.1410  133.7740 F   0  0  0  0  0  0  0  0  0  0  0  0
  127.3090  132.1910  134.5430 C   0  0  0  0  0  0  0  0  0  0  0  0
  126.4710  131.1260  134.1850 N   0  0  0  0  0  0  0  0  0  0  0  0
  125.1210  131.0640  134.5810 C   0  0  0  0  0  0  0  0  0  0  0  0
  124.9370  129.7510  135.3440 C   0  0  0  0  0  0  0  0  0  0  0  0
  125.6200  129.6630  136.4690 O   0  0  0  0  0  0  0  0  0  0  0  0
  125.6570  129.2550  137.7390 C   0  0  0  0  0  0  0  0  0  0  0  0
  126.4620  129.7670  138.7360 C   0  0  0  0  0  0  0  0  0  0  0  0
  126.4640  129.3140  140.0380 C   0  0  0  0  0  0  0  0  0  0  0  0
  125.6290  128.2850  140.4160 C   0  0  0  0  0  0  0  0  0  0  0  0
  124.8060  127.7430  139.4380 C   0  0  0  0  0  0  0  0  0  0  0  0
  123.9060  126.6130  139.8140 C   0  0  0  0  0  0  0  0  0  0  0  0
  123.2590  126.0440  138.7640 F   0  0  0  0  0  0  0  0  0  0  0  0
  124.6330  125.6140  140.4620 F   0  0  0  0  0  0  0  0  0  0  0  0
  123.0120  127.1080  140.7680 F   0  0  0  0  0  0  0  0  0  0  0  0
  124.8080  128.2000  138.1510 C   0  0  0  0  0  0  0  0  0  0  0  0
  129.5700  131.8930  135.7640 C   0  0  0  0  0  0  0  0  0  0  0  0
  129.1680  130.5740  136.5090 C   0  0  0  0  0  0  0  0  0  0  0  0
  1  2  2  0
  2  3  1  0
  3  4  2  0
  4  5  1  0
  5  6  2  0
  6  7  1  0
  6  8  1  0
  8  9  1  0
  8 10  2  0
  2 11  1  0
 11 12  1  0
 12 13  1  0
 13 14  1  0
 14 15  1  0
 14 16  1  0
 16 17  1  0
 17 18  1  0
 18 19  1  0
 19 20  1  0
 20 21  1  0
 21 22  2  0
 22 23  1  0
 23 24  2  0
 24 25  1  0
 25 26  1  0
 26 27  1  0
 26 28  1  0
 26 29  1  0
 25 30  2  0
 14 31  1  0
 31 32  1  0
 10  3  1  0
 32 11  1  0
 30 21  1  0
M  END
$$$$

     RDKit          3D

 30 32  0  0  0  0  0  0  0  0999 V2000
  125.9340  119.8110  128.5520 C   0  0  0  0  0  0  0  0  0  0  0  0
  126.9460  120.7130  128.8640 O   0  0  0  0  0  0  0  0  0  0  0  0
  127.4300  120.9610  130.1410 C   0  0  0  0  0  0  0  0  0  0  0  0
  128.7070  121.4190  130.2630 C   0  0  0  0  0  0  0  0  0  0  0  0
  129.2170  121.6730  131.5260 C   0  0  0  0  0  0  0  0  0  0  0  0
  128.4570  121.4670  132.6390 C   0  0  0  0  0  0  0  0  0  0  0  0
  127.1650  121.0020  132.4860 C   0  0  0  0  0  0  0  0  0  0  0  0
  126.3490  120.7780  133.5940 O   0  0  0  0  0  0  0  0  0  0  0  0
  126.6370  119.6460  134.3840 C   0  0  0  0  0  0  0  0  0  0  0  0
  126.1090  119.8150  135.8070 C   0  0  0  0  0  0  0  0  0  0  0  0
  127.0080  120.6010  136.5970 N   0  0  0  0  0  0  0  0  0  0  0  0
  126.3570  121.8170  137.0210 C   0  0  0  0  0  0  0  0  0  0  0  0
  127.3450  122.9490  137.0190 C   0  0  0  0  0  0  0  0  0  0  0  0
  127.9630  123.0950  138.2560 F   0  0  0  0  0  0  0  0  0  0  0  0
  128.4150  122.6760  135.9850 C   0  0  0  0  0  0  0  0  0  0  0  0
  128.8670  124.0370  135.4360 C   0  0  0  0  0  0  0  0  0  0  0  0
  127.7350  124.5110  134.6020 N   0  0  0  0  0  0  0  0  0  0  0  0
  128.0550  125.0160  133.3400 C   0  0  0  0  0  0  0  0  0  0  0  0
  129.3480  125.0710  133.0790 O   0  0  0  0  0  0  0  0  0  0  0  0
  127.1580  125.4710  132.3290 C   0  0  0  0  0  0  0  0  0  0  0  0
  126.7220  126.7390  132.1640 C   0  0  0  0  0  0  0  0  0  0  0  0
  125.7920  127.1090  131.1780 C   0  0  0  0  0  0  0  0  0  0  0  0
  125.2990  126.1520  130.3420 C   0  0  0  0  0  0  0  0  0  0  0  0
  124.1500  126.5950  129.1200 Cl  0  0  0  0  0  0  0  0  0  0  0  0
  125.7170  124.8510  130.4790 C   0  0  0  0  0  0  0  0  0  0  0  0
  125.1130  123.5670  129.4220 Cl  0  0  0  0  0  0  0  0  0  0  0  0
  126.6290  124.5090  131.4530 C   0  0  0  0  0  0  0  0  0  0  0  0
  126.4560  124.4370  135.2310 C   0  0  0  0  0  0  0  0  0  0  0  0
  126.6230  124.2420  136.7560 C   0  0  0  0  0  0  0  0  0  0  0  0
  126.6230  120.7380  131.2370 C   0  0  0  0  0  0  0  0  0  0  0  0
  1  2  1  0
  2  3  1  0
  3  4  2  0
  4  5  1  0
  5  6  2  0
  6  7  1  0
  7  8  1  0
  8  9  1  0
  9 10  1  0
 10 11  1  0
 11 12  1  0
 12 13  1  0
 13 14  1  0
 13 15  1  0
 15 16  1  0
 16 17  1  0
 17 18  1  0
 18 19  2  0
 18 20  1  0
 20 21  2  0
 21 22  1  0
 22 23  2  0
 23 24  1  0
 23 25  1  0
 25 26  1  0
 25 27  2  0
 17 28  1  0
 28 29  1  0
  7 30  2  0
 30  3  1  0
 29 13  1  0
 27 20  1  0
M  END
$$$$

     RDKit          3D

 28 30  0  0  0  0  0  0  0  0999 V2000
  127.4640  122.1830  133.3810 O   0  0  0  0  0  0  0  0  0  0  0  0
  127.1510  120.9280  133.1610 C   0  0  0  0  0  0  0  0  0  0  0  0
  127.0780  120.5220  131.7790 C   0  0  0  0  0  0  0  0  0  0  0  0
  127.9480  119.4930  131.3680 C   0  0  0  0  0  0  0  0  0  0  0  0
  127.9540  118.9930  130.0920 C   0  0  0  0  0  0  0  0  0  0  0  0
  127.0510  119.5450  129.1910 C   0  0  0  0  0  0  0  0  0  0  0  0
  127.0080  119.0940  127.9200 F   0  0  0  0  0  0  0  0  0  0  0  0
  126.2030  120.5400  129.5690 C   0  0  0  0  0  0  0  0  0  0  0  0
  125.0420  121.2670  128.4610 Cl  0  0  0  0  0  0  0  0  0  0  0  0
  126.2070  121.0440  130.8740 C   0  0  0  0  0  0  0  0  0  0  0  0
  126.9410  120.1910  134.3260 N   0  0  0  0  0  0  0  0  0  0  0  0
  126.6160  118.8020  134.4900 C   0  0  0  0  0  0  0  0  0  0  0  0
  126.7370  118.4540  135.9830 C   0  0  0  0  0  0  0  0  0  0  0  0
  125.8000  119.2060  136.8640 C   0  0  0  0  0  0  0  0  0  0  0  0
  126.2630  119.1060  138.1690 F   0  0  0  0  0  0  0  0  0  0  0  0
  124.4000  118.6940  136.7680 C   0  0  0  0  0  0  0  0  0  0  0  0
  123.4910  119.5900  136.1550 N   0  0  0  0  0  0  0  0  0  0  0  0
  122.2140  119.0840  135.7850 C   0  0  0  0  0  0  0  0  0  0  0  0
  122.2640  118.1330  134.6090 C   0  0  0  0  0  0  0  0  0  0  0  0
  122.0470  118.9270  133.3450 C   0  0  0  0  0  0  0  0  0  0  0  0
  122.8250  118.4340  132.1920 C   0  0  0  0  0  0  0  0  0  0  0  0
  123.9230  117.6600  132.4050 C   0  0  0  0  0  0  0  0  0  0  0  0
  124.6620  117.2000  131.3470 C   0  0  0  0  0  0  0  0  0  0  0  0
  124.2830  117.5280  130.0830 C   0  0  0  0  0  0  0  0  0  0  0  0
  123.1740  118.3080  129.8840 C   0  0  0  0  0  0  0  0  0  0  0  0
  122.4530  118.7560  130.9460 N   0  0  0  0  0  0  0  0  0  0  0  0
  125.7890  120.6620  136.4150 C   0  0  0  0  0  0  0  0  0  0  0  0
  127.0410  120.9120  135.6260 C   0  0  0  0  0  0  0  0  0  0  0  0
  1  2  2  0
  2  3  1  0
  3  4  2  0
  4  5  1  0
  5  6  2  0
  6  7  1  0
  6  8  1  0
  8  9  1  0
  8 10  2  0
  2 11  1  0
 11 12  1  0
 12 13  1  0
 13 14  1  0
 14 15  1  0
 14 16  1  0
 16 17  1  0
 17 18  1  0
 18 19  1  0
 19 20  1  0
 20 21  1  0
 21 22  2  0
 22 23  1  0
 23 24  2  0
 24 25  1  0
 25 26  2  0
 14 27  1  0
 27 28  1  0
 10  3  1  0
 28 11  1  0
 26 21  1  0
M  END
$$$$

     RDKit          3D

 29 31  0  0  0  0  0  0  0  0999 V2000
  131.2370  127.0220  135.5350 O   0  0  0  0  0  0  0  0  0  0  0  0
  131.5260  128.0570  134.7930 C   0  0  0  0  0  0  0  0  0  0  0  0
  131.0500  129.3240  135.2610 C   0  0  0  0  0  0  0  0  0  0  0  0
  131.3200  130.5580  134.7430 C   0  0  0  0  0  0  0  0  0  0  0  0
  130.7630  131.7460  135.2100 C   0  0  0  0  0  0  0  0  0  0  0  0
  129.8810  131.6780  136.2600 C   0  0  0  0  0  0  0  0  0  0  0  0
  129.2910  132.7780  136.7820 F   0  0  0  0  0  0  0  0  0  0  0  0
  129.5680  130.4660  136.8230 C   0  0  0  0  0  0  0  0  0  0  0  0
  128.4460  130.3300  138.1650 Cl  0  0  0  0  0  0  0  0  0  0  0  0
  130.1390  129.3210  136.3340 C   0  0  0  0  0  0  0  0  0  0  0  0
  132.2660  127.8240  133.6280 N   0  0  0  0  0  0  0  0  0  0  0  0
  132.5700  126.3810  133.2740 C   0  0  0  0  0  0  0  0  0  0  0  0
  134.0230  126.2560  133.5630 C   0  0  0  0  0  0  0  0  0  0  0  0
  134.8770  127.1760  132.7350 C   0  0  0  0  0  0  0  0  0  0  0  0
  134.6960  126.7350  131.4160 F   0  0  0  0  0  0  0  0  0  0  0  0
  136.3000  127.0430  133.1820 C   0  0  0  0  0  0  0  0  0  0  0  0
  136.5110  126.5480  134.4900 N   0  0  0  0  0  0  0  0  0  0  0  0
  137.3960  127.2600  135.3530 C   0  0  0  0  0  0  0  0  0  0  0  0
  136.7910  128.3890  136.0970 C   0  0  0  0  0  0  0  0  0  0  0  0
  135.4360  128.5810  135.9930 O   0  0  0  0  0  0  0  0  0  0  0  0
  134.5930  129.2760  136.8070 C   0  0  0  0  0  0  0  0  0  0  0  0
  133.8120  128.7600  137.8150 C   0  0  0  0  0  0  0  0  0  0  0  0
  132.9760  129.5570  138.6050 C   0  0  0  0  0  0  0  0  0  0  0  0
  132.9180  130.9140  138.3790 C   0  0  0  0  0  0  0  0  0  0  0  0
  133.7000  131.4590  137.3630 C   0  0  0  0  0  0  0  0  0  0  0  0
  134.5120  130.6730  136.5990 C   0  0  0  0  0  0  0  0  0  0  0  0
  135.4970  131.3900  135.3170 Cl  0  0  0  0  0  0  0  0  0  0  0  0
  134.4090  128.6210  132.7370 C   0  0  0  0  0  0  0  0  0  0  0  0
  132.8700  128.7030  132.6840 C   0  0  0  0  0  0  0  0  0  0  0  0
  1  2  2  0
  2  3  1  0
  3  4  2  0
  4  5  1  0
  5  6  2  0
  6  7  1  0
  6  8  1  0
  8  9  1  0
  8 10  2  0
  2 11  1  0
 11 12  1  0
 12 13  1  0
 13 14  1  0
 14 15  1  0
 14 16  1  0
 16 17  1  0
 17 18  1  0
 18 19  1  0
 19 20  1  0
 20 21  1  0
 21 22  2  0
 22 23  1  0
 23 24  2  0
 24 25  1  0
 25 26  2  0
 26 27  1  0
 14 28  1  0
 28 29  1  0
 10  3  1  0
 29 11  1  0
 26 21  1  0
M  END
$$$$

     RDKit          3D

 31 33  0  0  0  0  0  0  0  0999 V2000
  127.3640  125.7960  133.7410 N   0  0  0  0  0  0  0  0  0  0  0  0
  126.8100  126.8830  134.4640 C   0  0  0  0  0  0  0  0  0  0  0  0
  126.8360  128.0430  133.9890 O   0  0  0  0  0  0  0  0  0  0  0  0
  126.2120  126.6460  135.7600 C   0  0  0  0  0  0  0  0  0  0  0  0
  126.7580  125.7350  136.6190 C   0  0  0  0  0  0  0  0  0  0  0  0
  126.1760  125.5200  137.8500 C   0  0  0  0  0  0  0  0  0  0  0  0
  125.0370  126.2360  138.2020 C   0  0  0  0  0  0  0  0  0  0  0  0
  124.4730  127.1560  137.3540 C   0  0  0  0  0  0  0  0  0  0  0  0
  123.3500  127.8500  137.7190 O   0  0  0  0  0  0  0  0  0  0  0  0
  123.2260  129.2480  137.5660 C   0  0  0  0  0  0  0  0  0  0  0  0
  121.8290  129.6430  137.1510 C   0  0  0  0  0  0  0  0  0  0  0  0
  121.3290  128.9490  136.0110 N   0  0  0  0  0  0  0  0  0  0  0  0
  121.7760  129.4750  134.7370 C   0  0  0  0  0  0  0  0  0  0  0  0
  121.9610  128.3400  133.7570 C   0  0  0  0  0  0  0  0  0  0  0  0
  120.9050  128.3950  132.8620 F   0  0  0  0  0  0  0  0  0  0  0  0
  121.9440  127.0480  134.5460 C   0  0  0  0  0  0  0  0  0  0  0  0
  121.9180  125.9060  133.5250 C   0  0  0  0  0  0  0  0  0  0  0  0
  123.1580  125.9450  132.7950 N   0  0  0  0  0  0  0  0  0  0  0  0
  124.1300  124.9490  132.6630 C   0  0  0  0  0  0  0  0  0  0  0  0
  125.1530  125.2760  131.9180 O   0  0  0  0  0  0  0  0  0  0  0  0
  124.1640  123.6250  133.2240 C   0  0  0  0  0  0  0  0  0  0  0  0
  123.8390  122.4720  132.5640 C   0  0  0  0  0  0  0  0  0  0  0  0
  123.8970  121.2250  133.2150 C   0  0  0  0  0  0  0  0  0  0  0  0
  124.2750  121.1030  134.5260 C   0  0  0  0  0  0  0  0  0  0  0  0
  124.3170  119.8860  135.1060 F   0  0  0  0  0  0  0  0  0  0  0  0
  124.6060  122.2540  135.2080 C   0  0  0  0  0  0  0  0  0  0  0  0
  125.0870  122.0880  136.8790 Cl  0  0  0  0  0  0  0  0  0  0  0  0
  124.5510  123.4690  134.5770 C   0  0  0  0  0  0  0  0  0  0  0  0
  123.4510  127.2150  132.0890 C   0  0  0  0  0  0  0  0  0  0  0  0
  123.3070  128.4040  133.0150 C   0  0  0  0  0  0  0  0  0  0  0  0
  125.0660  127.3560  136.1320 C   0  0  0  0  0  0  0  0  0  0  0  0
  1  2  1  0
  2  3  2  0
  2  4  1  0
  4  5  2  0
  5  6  1  0
  6  7  2  0
  7  8  1  0
  8  9  1  0
  9 10  1  0
 10 11  1  0
 11 12  1  0
 12 13  1  0
 13 14  1  0
 14 15  1  0
 14 16  1  0
 16 17  1  0
 17 18  1  0
 18 19  1  0
 19 20  2  0
 19 21  1  0
 21 22  2  0
 22 23  1  0
 23 24  2  0
 24 25  1  0
 24 26  1  0
 26 27  1  0
 26 28  2  0
 18 29  1  0
 29 30  1  0
  8 31  2  0
 31  4  1  0
 30 14  1  0
 28 21  1  0
M  END
$$$$

     RDKit          3D

 32 35  0  0  0  0  0  0  0  0999 V2000
  126.4990  128.6210  138.7640 O   0  0  0  0  0  0  0  0  0  0  0  0
  125.2080  128.3660  138.6320 C   0  0  0  0  0  0  0  0  0  0  0  0
  124.8940  127.4900  137.5680 C   0  0  0  0  0  0  0  0  0  0  0  0
  125.7140  126.5600  137.0050 C   0  0  0  0  0  0  0  0  0  0  0  0
  125.3220  125.7030  135.9550 C   0  0  0  0  0  0  0  0  0  0  0  0
  124.0560  125.7910  135.4620 C   0  0  0  0  0  0  0  0  0  0  0  0
  123.5630  124.7230  134.1530 Cl  0  0  0  0  0  0  0  0  0  0  0  0
  123.2170  126.7050  136.0020 C   0  0  0  0  0  0  0  0  0  0  0  0
  121.5630  126.8610  135.3990 Cl  0  0  0  0  0  0  0  0  0  0  0  0
  123.5990  127.5280  137.0110 C   0  0  0  0  0  0  0  0  0  0  0  0
  124.3980  129.0110  139.5730 N   0  0  0  0  0  0  0  0  0  0  0  0
  125.0460  129.9060  140.5690 C   0  0  0  0  0  0  0  0  0  0  0  0
  124.4930  129.5890  141.9160 C   0  0  0  0  0  0  0  0  0  0  0  0
  122.9980  129.7440  141.9780 C   0  0  0  0  0  0  0  0  0  0  0  0
  122.7110  130.8660  142.7400 F   0  0  0  0  0  0  0  0  0  0  0  0
  122.4020  128.4990  142.5590 C   0  0  0  0  0  0  0  0  0  0  0  0
  120.9860  128.4870  142.3650 N   0  0  0  0  0  0  0  0  0  0  0  0
  120.4160  127.1530  142.5060 C   0  0  0  0  0  0  0  0  0  0  0  0
  119.9660  126.7290  141.1470 C   0  0  0  0  0  0  0  0  0  0  0  0
  120.8970  126.6210  140.1580 O   0  0  0  0  0  0  0  0  0  0  0  0
  121.2760  125.6150  139.3300 C   0  0  0  0  0  0  0  0  0  0  0  0
  120.4870  125.0490  138.3670 C   0  0  0  0  0  0  0  0  0  0  0  0
  120.9130  124.0280  137.5470 C   0  0  0  0  0  0  0  0  0  0  0  0
  122.1930  123.5470  137.6950 C   0  0  0  0  0  0  0  0  0  0  0  0
  123.0210  124.0870  138.6510 C   0  0  0  0  0  0  0  0  0  0  0  0
  124.3210  123.5810  138.7860 C   0  0  0  0  0  0  0  0  0  0  0  0
  125.1070  124.1560  139.7570 C   0  0  0  0  0  0  0  0  0  0  0  0
  124.6580  125.1810  140.5690 C   0  0  0  0  0  0  0  0  0  0  0  0
  123.4020  125.6190  140.3870 N   0  0  0  0  0  0  0  0  0  0  0  0
  122.5840  125.0990  139.4560 C   0  0  0  0  0  0  0  0  0  0  0  0
  122.4900  130.0230  140.5890 C   0  0  0  0  0  0  0  0  0  0  0  0
  122.9940  128.8660  139.6770 C   0  0  0  0  0  0  0  0  0  0  0  0
  1  2  2  0
  2  3  1  0
  3  4  2  0
  4  5  1  0
  5  6  2  0
  6  7  1  0
  6  8  1  0
  8  9  1  0
  8 10  2  0
  2 11  1  0
 11 12  1  0
 12 13  1  0
 13 14  1  0
 14 15  1  0
 14 16  1  0
 16 17  1  0
 17 18  1  0
 18 19  1  0
 19 20  1  0
 20 21  1  0
 21 22  2  0
 22 23  1  0
 23 24  2  0
 24 25  1  0
 25 26  2  0
 26 27  1  0
 27 28  2  0
 28 29  1  0
 29 30  2  0
 14 31  1  0
 31 32  1  0
 10  3  1  0
 32 11  1  0
 30 21  1  0
 30 25  1  0
M  END
$$$$

     RDKit          3D

 29 31  0  0  0  0  0  0  0  0999 V2000
  133.3220  119.7390  139.9610 C   0  0  0  0  0  0  0  0  0  0  0  0
  132.4360  118.8790  139.2150 N   0  0  0  0  0  0  0  0  0  0  0  0
  131.3790  119.3650  138.4040 C   0  0  0  0  0  0  0  0  0  0  0  0
  130.3790  120.1220  138.9190 N   0  0  0  0  0  0  0  0  0  0  0  0
  129.3710  120.6020  138.2080 C   0  0  0  0  0  0  0  0  0  0  0  0
  128.3400  121.4120  138.8810 C   0  0  0  0  0  0  0  0  0  0  0  0
  128.8150  122.6240  139.4650 N   0  0  0  0  0  0  0  0  0  0  0  0
  129.1530  123.6330  138.5190 C   0  0  0  0  0  0  0  0  0  0  0  0
  130.1580  124.5890  139.0940 C   0  0  0  0  0  0  0  0  0  0  0  0
  129.6950  125.0290  140.3120 F   0  0  0  0  0  0  0  0  0  0  0  0
  131.4650  123.8170  139.2680 C   0  0  0  0  0  0  0  0  0  0  0  0
  131.8550  123.2430  137.8920 C   0  0  0  0  0  0  0  0  0  0  0  0
  131.8780  124.2970  136.9280 N   0  0  0  0  0  0  0  0  0  0  0  0
  132.0080  124.1450  135.5530 C   0  0  0  0  0  0  0  0  0  0  0  0
  132.0140  125.2800  134.8980 O   0  0  0  0  0  0  0  0  0  0  0  0
  132.1320  122.9330  134.8000 C   0  0  0  0  0  0  0  0  0  0  0  0
  133.1760  122.0550  134.7560 C   0  0  0  0  0  0  0  0  0  0  0  0
  133.1810  120.8770  133.9820 C   0  0  0  0  0  0  0  0  0  0  0  0
  132.0900  120.5670  133.2190 C   0  0  0  0  0  0  0  0  0  0  0  0
  132.0720  119.4450  132.4700 F   0  0  0  0  0  0  0  0  0  0  0  0
  131.0270  121.4290  133.2440 C   0  0  0  0  0  0  0  0  0  0  0  0
  129.5940  121.0640  132.2710 Cl  0  0  0  0  0  0  0  0  0  0  0  0
  131.0170  122.5810  133.9980 C   0  0  0  0  0  0  0  0  0  0  0  0
  131.7370  125.6710  137.4950 C   0  0  0  0  0  0  0  0  0  0  0  0
  130.3510  125.7190  138.0970 C   0  0  0  0  0  0  0  0  0  0  0  0
  129.3060  120.3340  136.8650 C   0  0  0  0  0  0  0  0  0  0  0  0
  130.3040  119.5690  136.3030 C   0  0  0  0  0  0  0  0  0  0  0  0
  131.3530  119.0740  137.0660 C   0  0  0  0  0  0  0  0  0  0  0  0
  132.4040  118.2580  136.4300 C   0  0  0  0  0  0  0  0  0  0  0  0
  1  2  1  0
  2  3  1  0
  3  4  2  0
  4  5  1  0
  5  6  1  0
  6  7  1  0
  7  8  1  0
  8  9  1  0
  9 10  1  0
  9 11  1  0
 11 12  1  0
 12 13  1  0
 13 14  1  0
 14 15  2  0
 14 16  1  0
 16 17  2  0
 17 18  1  0
 18 19  2  0
 19 20  1  0
 19 21  1  0
 21 22  1  0
 21 23  2  0
 13 24  1  0
 24 25  1  0
  5 26  2  0
 26 27  1  0
 27 28  2  0
 28 29  1  0
 28  3  1  0
 25  9  1  0
 23 16  1  0
M  END
$$$$

     RDKit          3D

 28 30  0  0  0  0  0  0  0  0999 V2000
  124.1960  122.3700  136.9610 O   0  0  0  0  0  0  0  0  0  0  0  0
  125.4860  122.3840  136.8110 C   0  0  0  0  0  0  0  0  0  0  0  0
  126.2270  121.1940  137.0840 C   0  0  0  0  0  0  0  0  0  0  0  0
  126.7320  120.8410  138.2940 C   0  0  0  0  0  0  0  0  0  0  0  0
  127.3750  119.6210  138.4980 C   0  0  0  0  0  0  0  0  0  0  0  0
  127.5090  118.7450  137.4690 C   0  0  0  0  0  0  0  0  0  0  0  0
  128.1250  117.5590  137.6320 F   0  0  0  0  0  0  0  0  0  0  0  0
  126.9950  119.0920  136.2220 C   0  0  0  0  0  0  0  0  0  0  0  0
  127.1890  117.9230  134.9100 Cl  0  0  0  0  0  0  0  0  0  0  0  0
  126.3750  120.2760  136.0330 C   0  0  0  0  0  0  0  0  0  0  0  0
  126.0300  123.6300  136.3720 N   0  0  0  0  0  0  0  0  0  0  0  0
  125.0730  124.7680  136.2730 C   0  0  0  0  0  0  0  0  0  0  0  0
  125.7730  125.9890  136.7550 C   0  0  0  0  0  0  0  0  0  0  0  0
  126.8320  126.3350  135.7200 C   0  0  0  0  0  0  0  0  0  0  0  0
  127.6930  127.2390  136.3530 F   0  0  0  0  0  0  0  0  0  0  0  0
  126.2510  127.0520  134.5420 C   0  0  0  0  0  0  0  0  0  0  0  0
  126.7160  126.4600  133.3270 N   0  0  0  0  0  0  0  0  0  0  0  0
  125.6380  126.4560  132.3180 C   0  0  0  0  0  0  0  0  0  0  0  0
  125.4400  125.0590  131.8460 C   0  0  0  0  0  0  0  0  0  0  0  0
  125.1900  124.1470  132.8380 O   0  0  0  0  0  0  0  0  0  0  0  0
  125.1310  122.7830  132.8200 C   0  0  0  0  0  0  0  0  0  0  0  0
  126.2950  122.0710  132.4410 C   0  0  0  0  0  0  0  0  0  0  0  0
  126.3270  120.7010  132.3970 C   0  0  0  0  0  0  0  0  0  0  0  0
  125.2290  119.9430  132.7200 C   0  0  0  0  0  0  0  0  0  0  0  0
  124.0890  120.6100  133.0910 C   0  0  0  0  0  0  0  0  0  0  0  0
  124.0460  122.0070  133.1390 C   0  0  0  0  0  0  0  0  0  0  0  0
  127.6210  125.1680  135.3020 C   0  0  0  0  0  0  0  0  0  0  0  0
  127.3740  123.8620  135.9630 C   0  0  0  0  0  0  0  0  0  0  0  0
  1  2  2  0
  2  3  1  0
  3  4  2  0
  4  5  1  0
  5  6  2  0
  6  7  1  0
  6  8  1  0
  8  9  1  0
  8 10  2  0
  2 11  1  0
 11 12  1  0
 12 13  1  0
 13 14  1  0
 14 15  1  0
 14 16  1  0
 16 17  1  0
 17 18  1  0
 18 19  1  0
 19 20  1  0
 20 21  1  0
 21 22  2  0
 22 23  1  0
 23 24  2  0
 24 25  1  0
 25 26  2  0
 14 27  1  0
 27 28  1  0
 10  3  1  0
 28 11  1  0
 26 21  1  0
M  END
$$$$
